10
 PE=       -688.855685 H, t=  75640.00 au
CL   -0.8072577    0.5138083    0.9871193
 O    2.2743954   -0.1873644    1.5474509
 O    0.7044721   -1.3704764   -0.8373680
 O   -1.3848197    0.0313617   -2.6134278
 H    1.9752381   -1.0917191    1.6962205
 H   -0.4825315   -0.3286975   -2.4799816
 H    1.2891577   -0.8163671   -0.3160333
 H   -1.5646233    0.2441393   -1.7187749
 H   -0.1043140   -0.8982374   -0.5482575
 H    1.3430150    0.1790683    1.3913619
