9
 PE=      -1151.885510 H, t=      0.00 au
TI    0.0046320   -0.0164712   -0.1276982 
 O    0.2901313   -1.2862053    1.1085378 
 O   -1.6563245   -0.3893981   -0.9387831 
 H   -2.3819570   -0.2544611   -1.5364254 
 O   -0.1676465    1.1119351    1.0846160 
 H   -0.4621402    2.0527875    1.2143464 
 O    1.6278285    0.4958647   -0.9107342 
 H    1.4509228    1.5079842   -0.8657060 
 H   -0.3188207   -1.4473375    1.8016557 
9
 PE=      -1151.886570 H, t=     40.00 au
TI    0.0022089   -0.0141787   -0.1294735 
 O    0.2905354   -1.2871075    1.1088263 
 O   -1.6518738   -0.3923537   -0.9387185 
 H   -2.3627914   -0.2363163   -1.5308686 
 O   -0.1699429    1.1106116    1.0869236 
 H   -0.4469460    2.0607567    1.2302292 
 O    1.6280481    0.4928785   -0.9130688 
 H    1.4725328    1.5131532   -0.8563258 
 H   -0.3037373   -1.4579250    1.8500266 
9
 PE=      -1151.890945 H, t=     80.00 au
TI   -0.0000562   -0.0120445   -0.1322445 
 O    0.2910345   -1.2899910    1.1101493 
 O   -1.6470823   -0.3956082   -0.9387211 
 H   -2.3533718   -0.2176366   -1.5310193 
 O   -0.1726460    1.1126015    1.0916001 
 H   -0.4296113    2.0538993    1.2448262 
 O    1.6277220    0.4914514   -0.9154087 
 H    1.5022590    1.4968188   -0.8502799 
 H   -0.2884676   -1.4663372    1.9031709 
9
 PE=      -1151.896492 H, t=    120.00 au
TI   -0.0022169   -0.0099959   -0.1360606 
 O    0.2912094   -1.2950658    1.1132807 
 O   -1.6418428   -0.3991578   -0.9387074 
 H   -2.3530489   -0.1981433   -1.5368066 
 O   -0.1756497    1.1174921    1.0985297 
 H   -0.4113330    2.0363622    1.2586230 
 O    1.6268713    0.4912376   -0.9177260 
 H    1.5388256    1.4639586   -0.8473016 
 H   -0.2657170   -1.4701223    1.9503937 
9
 PE=      -1151.900088 H, t=    160.00 au
TI   -0.0043242   -0.0079639   -0.1409257 
 O    0.2908750   -1.3024158    1.1186860 
 O   -1.6363489   -0.4029195   -0.9388561 
 H   -2.3565956   -0.1788343   -1.5442349 
 O   -0.1787595    1.1244348    1.1074622 
 H   -0.3946466    2.0184055    1.2732435 
 O    1.6255416    0.4914168   -0.9200438 
 H    1.5807599    1.4272442   -0.8464800 
 H   -0.2320787   -1.4679980    1.9851476 
9
 PE=      -1151.904071 H, t=    200.00 au
TI   -0.0064157   -0.0058872   -0.1467959 
 O    0.2900416   -1.3119983    1.1264906 
 O   -1.6308967   -0.4067596   -0.9394262 
 H   -2.3577525   -0.1614094   -1.5483003 
 O   -0.1817412    1.1323247    1.1180356 
 H   -0.3826094    2.0136181    1.2909923 
 O    1.6237454    0.4908118   -0.9224287 
 H    1.6272255    1.4051756   -0.8462495 
 H   -0.1875106   -1.4598293    2.0053830 
9
 PE=      -1151.913339 H, t=    240.00 au
TI   -0.0084999   -0.0037235   -0.1535498 
 O    0.2888885   -1.3235936    1.1364086 
 O   -1.6257245   -0.4105262   -0.9405804 
 H   -2.3523218   -0.1474322   -1.5456233 
 O   -0.1844367    1.1403009    1.1298281 
 H   -0.3768019    2.0302675    1.3130531 
 O    1.6214182    0.4886112   -0.9249217 
 H    1.6785317    1.4106180   -0.8452106 
 H   -0.1350824   -1.4465543    2.0138398 
9
 PE=      -1151.922253 H, t=    280.00 au
TI   -0.0105824   -0.0014267   -0.1610622 
 O    0.2877338   -1.3369246    1.1477708 
 O   -1.6208489   -0.4141396   -0.9423077 
 H   -2.3396496   -0.1373910   -1.5357793 
 O   -0.1869038    1.1483514    1.1426132 
 H   -0.3756697    2.0632586    1.3378802 
 O    1.6185041    0.4852345   -0.9274896 
 H    1.7350243    1.4365254   -0.8433986 
 H   -0.0800603   -1.4298750    2.0192481 
9
 PE=      -1151.925468 H, t=    320.00 au
TI   -0.0126908    0.0010759   -0.1693055 
 O    0.2869155   -1.3518933    1.1597839 
 O   -1.6160001   -0.4176559   -0.9444456 
 H   -2.3225520   -0.1302947   -1.5212072 
 O   -0.1893550    1.1571255    1.1564877 
 H   -0.3760086    2.0995454    1.3623071 
 O    1.6150670    0.4818464   -0.9300819 
 H    1.7953907    1.4634535   -0.8418973 
 H   -0.0275024   -1.4111941    2.0346534 
9
 PE=      -1151.927483 H, t=    360.00 au
TI   -0.0148089    0.0038081   -0.1781181 
 O    0.2866175   -1.3682547    1.1716596 
 O   -1.6108348   -0.4211453   -0.9466839 
 H   -2.3067618   -0.1241377   -1.5066478 
 O   -0.1919402    1.1670796    1.1713404 
 H   -0.3751643    2.1268958    1.3829160 
 O    1.6113244    0.4794989   -0.9326258 
 H    1.8556826    1.4742306   -0.8416893 
 H    0.0194084   -1.3909616    2.0697123 
9
 PE=      -1151.932051 H, t=    400.00 au
TI   -0.0169026    0.0067682   -0.1872859 
 O    0.2867143   -1.3857517    1.1833485 
 O   -1.6050356   -0.4246898   -0.9487158 
 H   -2.2983281   -0.1165921   -1.4969870 
 O   -0.1947200    1.1782850    1.1869180 
 H   -0.3718072    2.1387758    1.3975921 
 O    1.6074943    0.4787369   -0.9350834 
 H    1.9119136    1.4599303   -0.8431795 
 H    0.0622137   -1.3685316    2.1209915 
9
 PE=      -1151.937584 H, t=    440.00 au
TI   -0.0189461    0.0099648   -0.1966578 
 O    0.2869493   -1.4042236    1.1955577 
 O   -1.5984932   -0.4283218   -0.9504603 
 H   -2.2995372   -0.1066400   -1.4939768 
 O   -0.1976902    1.1905105    1.2029974 
 H   -0.3659486    2.1354209    1.4060729 
 O    1.6036637    0.4795857   -0.9374771 
 H    1.9621164    1.4197429   -0.8462249 
 H    0.1048420   -1.3435236    2.1745729 
9
 PE=      -1151.940372 H, t=    480.00 au
TI   -0.0209097    0.0134058   -0.2060992 
 O    0.2871659   -1.4234685    1.2090279 
 O   -1.5914427   -0.4319409   -0.9521168 
 H   -2.3073370   -0.0955954   -1.4951675 
 O   -0.2007730    1.2031678    1.2193013 
 H   -0.3587944    2.1234977    1.4096992 
 O    1.5997429    0.4816167   -0.9398679 
 H    2.0070423    1.3600632   -0.8501584 
 H    0.1496915   -1.3167153    2.2163821 
9
 PE=      -1151.938668 H, t=    520.00 au
TI   -0.0227540    0.0170895   -0.2154569 
 O    0.2873445   -1.4432041    1.2241326 
 O   -1.5843388   -0.4353522   -0.9540238 
 H   -2.3156904   -0.0862532   -1.4959627 
 O   -0.2038224    1.2153026    1.2354508 
 H   -0.3524948    2.1153213    1.4110048 
 O    1.5953922    0.4839464   -0.9423525 
 H    2.0514458    1.2945692   -0.8536495 
 H    0.1968515   -1.2896252    2.2376629 
9
 PE=      -1151.937584 H, t=    560.00 au
TI   -0.0244365    0.0210106   -0.2245768 
 O    0.2875518   -1.4631454    1.2408389 
 O   -1.5776117   -0.4383782   -0.9564743 
 H   -2.3192570   -0.0811837   -1.4924941 
 O   -0.2066912    1.2259316    1.2510742 
 H   -0.3491653    2.1237570    1.4124368 
 O    1.5900281    0.4854815   -0.9450566 
 H    2.1041192    1.2402705   -0.8548984 
 H    0.2449769   -1.2636917    2.2360549 
9
 PE=      -1151.940625 H, t=    600.00 au
TI   -0.0259131    0.0251538   -0.2332942 
 O    0.2878831   -1.4830254    1.2586838 
 O   -1.5715301   -0.4409245   -0.9596087 
 H   -2.3156655   -0.0816120   -1.4832364 
 O   -0.2093281    1.2346562    1.2659146 
 H   -0.3492881    2.1522289    1.4143968 
 O    1.5832649    0.4857006   -0.9480570 
 H    2.1711036    1.2051625   -0.8528808 
 H    0.2921145   -1.2395094    2.2156467 
9
 PE=      -1151.940319 H, t=    640.00 au
TI   -0.0271548    0.0295198   -0.2414996 
 O    0.2884074   -1.5027986    1.2769010 
 O   -1.5661005   -0.4430258   -0.9634073 
 H   -2.3062941   -0.0869809   -1.4693518 
 O   -0.2118218    1.2419676    1.2799535 
 H   -0.3513183    2.1911560    1.4150741 
 O    1.5754482    0.4851458   -0.9513277 
 H    2.2470940    1.1802892   -0.8485539 
 H    0.3369361   -1.2157048    2.1869010 
9
 PE=      -1151.933792 H, t=    680.00 au
TI   -0.0281504    0.0341387   -0.2491538 
 O    0.2891201   -1.5227189    1.2946310 
 O   -1.5610687   -0.4448357   -0.9677300 
 H   -2.2958822   -0.0951592   -1.4541832 
 O   -0.2143117    1.2487161    1.2933071 
 H   -0.3531659    2.2265812    1.4123918 
 O    1.5673887    0.4847191   -0.9548039 
 H    2.3193945    1.1508699   -0.8439310 
 H    0.3796532   -1.1884547    2.1639361 
9
 PE=      -1151.927969 H, t=    720.00 au
TI   -0.0288859    0.0389992   -0.2561491 
 O    0.2899423   -1.5428877    1.3111161 
 O   -1.5561083   -0.4465389   -0.9723349 
 H   -2.2910351   -0.1031700   -1.4421759 
 O   -0.2168691    1.2554641    1.3058991 
 H   -0.3533781    2.2477780    1.4053207 
 O    1.5599028    0.4850118   -0.9584092 
 H    2.3758523    1.1075196   -0.8407707 
 H    0.4211416   -1.1538527    2.1570456 
9
 PE=      -1151.926821 H, t=    760.00 au
TI   -0.0293567    0.0440747   -0.2623760 
 O    0.2908380   -1.5631090    1.3263684 
 O   -1.5509991   -0.4482628   -0.9770492 
 H   -2.2965435   -0.1089105   -1.4363460 
 O   -0.2194947    1.2623732    1.3175641 
 H   -0.3514574    2.2503473    1.3940171 
 O    1.5535035    0.4862046   -0.9620982 
 H    2.4094610    1.0476364   -0.8401039 
 H    0.4614317   -1.1122569    2.1638961 
9
 PE=      -1151.927271 H, t=    800.00 au
TI   -0.0295739    0.0493706   -0.2677915 
 O    0.2919013   -1.5830140    1.3411205 
 O   -1.5458040   -0.4499941   -0.9819442 
 H   -2.3117588   -0.1128102   -1.4360738 
 O   -0.2221482    1.2692501    1.3281919 
 H   -0.3478091    2.2367109    1.3793745 
 O    1.5482765    0.4881723   -0.9658910 
 H    2.4196671    0.9733431   -0.8421682 
 H    0.4988600   -1.0690549    2.1727265 
9
 PE=      -1151.924828 H, t=    840.00 au
TI   -0.0295576    0.0549088   -0.2723807 
 O    0.2932836   -1.6022147    1.3561285 
 O   -1.5408580   -0.4515935   -0.9872797 
 H   -2.3311454   -0.1174012   -1.4378337 
 O   -0.2247456    1.2755238    1.3376926 
 H   -0.3436276    2.2157324    1.3625408 
 O    1.5438591    0.4905659   -0.9698671 
 H    2.4128300    0.8902589   -0.8463338 
 H    0.5310232   -1.0310007    2.1723497 
9
 PE=      -1151.919216 H, t=    880.00 au
TI   -0.0293355    0.0606920   -0.2761162 
 O    0.2950979   -1.6203639    1.3717744 
 O   -1.5365662   -0.4528953   -0.9933131 
 H   -2.3479647   -0.1254777   -1.4376877 
 O   -0.2271600    1.2803007    1.3459519 
 H   -0.3406369    2.2010783    1.3444459 
 O    1.5393979    0.4928719   -0.9741543 
 H    2.4033856    0.8067783   -0.8508936 
 H    0.5559590   -1.0032990    2.1567476 
9
 PE=      -1151.916997 H, t=    920.00 au
TI   -0.0289466    0.0667079   -0.2789717 
 O    0.2973772   -1.6372616    1.3880727 
 O   -1.5331853   -0.4537982   -1.0001793 
 H   -2.3576328   -0.1386713   -1.4331954 
 O   -0.2292840    1.2828198    1.3528865 
 H   -0.3401881    2.2042593    1.3253366 
 O    1.5337947    0.4946456   -0.9789050 
 H    2.4099841    0.7303066   -0.8535402 
 H    0.5729073   -0.9882885    2.1253258 
9
 PE=      -1151.919614 H, t=    960.00 au
TI   -0.0284431    0.0729236   -0.2809269 
 O    0.3000493   -1.6528962    1.4047001 
 O   -1.5307288   -0.4542990   -1.0078387 
 H   -2.3593085   -0.1569313   -1.4241300 
 O   -0.2311022    1.2830751    1.3584323 
 H   -0.3421197    2.2248951    1.3051856 
 O    1.5266838    0.4958444   -0.9841644 
 H    2.4401920    0.6620061   -0.8534692 
 H    0.5827047   -0.9847045    2.0823596 
9
 PE=      -1151.918487 H, t=   1000.00 au
TI   -0.0278834    0.0793583   -0.2819992 
 O    0.3029481   -1.6676886    1.4212368 
 O   -1.5289169   -0.4544950   -1.0161699 
 H   -2.3562625   -0.1788254   -1.4123166 
 O   -0.2327077    1.2818199    1.3625678 
 H   -0.3449091    2.2511404    1.2844006 
 O    1.5189309    0.4967512   -0.9898515 
 H    2.4815642    0.5974437   -0.8526778 
 H    0.5882501   -0.9868405    2.0358821 
9
 PE=      -1151.912410 H, t=   1040.00 au
TI   -0.0273277    0.0860708   -0.2822153 
 O    0.3058317   -1.6823873    1.4372382 
 O   -1.5272611   -0.4545368   -1.0250115 
 H   -2.3547803   -0.2021835   -1.4008457 
 O   -0.2342131    1.2799027    1.3652571 
 H   -0.3469202    2.2696881    1.2639400 
 O    1.5117895    0.4975647   -0.9958680 
 H    2.5151092    0.5332101   -0.8540534 
 H    0.5940224   -0.9852880    1.9956810 
9
 PE=      -1151.909149 H, t=   1080.00 au
TI   -0.0268466    0.0930176   -0.2815897 
 O    0.3084436   -1.6974607    1.4521733 
 O   -1.5252775   -0.4545551   -1.0340725 
 H   -2.3614391   -0.2247095   -1.3928267 
 O   -0.2356680    1.2778866    1.3663978 
 H   -0.3470869    2.2717325    1.2451825 
 O    1.5062692    0.4982825   -1.0020777 
 H    2.5269222    0.4698497   -0.8596322 
 H    0.6039446   -0.9714089    1.9694915 
9
 PE=      -1151.911783 H, t=   1120.00 au
TI   -0.0265078    0.1001389   -0.2801554 
 O    0.3107533   -1.7128249    1.4659861 
 O   -1.5227456   -0.4545856   -1.0431694 
 H   -2.3785231   -0.2455571   -1.3892274 
 O   -0.2370736    1.2759342    1.3659413 
 H   -0.3451342    2.2552467    1.2290826 
 O    1.5028275    0.4988101   -1.0083993 
 H    2.5117253    0.4094189   -0.8701958 
 H    0.6182615   -0.9450869    1.9571253 
9
 PE=      -1151.915115 H, t=   1160.00 au
TI   -0.0263656    0.1074492   -0.2779461 
 O    0.3129980   -1.7279909    1.4791661 
 O   -1.5198219   -0.4545548   -1.0523862 
 H   -2.4019906   -0.2658077   -1.3882102 
 O   -0.2384023    1.2737699    1.3639170 
 H   -0.3415477    2.2250403    1.2155592 
 O    1.5013227    0.4990677   -1.0148810 
 H    2.4725284    0.3531044   -0.8854631 
 H    0.6335243   -0.9152061    1.9520218 
9
 PE=      -1151.913844 H, t=   1200.00 au
TI   -0.0264661    0.1149911   -0.2749843 
 O    0.3154694   -1.7424065    1.4922518 
 O   -1.5168652   -0.4543485   -1.0619193 
 H   -2.4244262   -0.2871489   -1.3867793 
 O   -0.2395908    1.2707139    1.3604058 
 H   -0.3374631    2.1920693    1.2034182 
 O    1.5010568    0.4990678   -1.0216569 
 H    2.4204936    0.3003066   -0.9041654 
 H    0.6456096   -0.8924491    1.9475781 
9
 PE=      -1151.910098 H, t=   1240.00 au
TI   -0.0268497    0.1227368   -0.2713122 
 O    0.3183502   -1.7555797    1.5054736 
 O   -1.5142045   -0.4538802   -1.0718403 
 H   -2.4390349   -0.3105259   -1.3825627 
 O   -0.2405451    1.2658984    1.3555557 
 H   -0.3343591    2.1708774    1.1907553 
 O    1.5008174    0.4990072   -1.0288478 
 H    2.3751746    0.2478897   -0.9240115 
 H    0.6516510   -0.8844855    1.9400993 
9
 PE=      -1151.912147 H, t=   1280.00 au
TI   -0.0275474    0.1306189   -0.2669969 
 O    0.3216847   -1.7672597    1.5188104 
 O   -1.5119624   -0.4531177   -1.0820808 
 H   -2.4424710   -0.3358868   -1.3746611 
 O   -0.2412099    1.2588336    1.3495131 
 H   -0.3330996    2.1706235    1.1763205 
 O    1.4994282    0.4992323   -1.0365101 
 H    2.3555047    0.1905259   -0.9429649 
 H    0.6507364   -0.8942160    1.9289109 
9
 PE=      -1151.917882 H, t=   1320.00 au
TI   -0.0285784    0.1385558   -0.2621247 
 O    0.3253821   -1.7775202    1.5320630 
 O   -1.5099902   -0.4520786   -1.0924610 
 H   -2.4359548   -0.3624230   -1.3637520 
 O   -0.2416247    1.2499243    1.3423191 
 H   -0.3331243    2.1867257    1.1611800 
 O    1.4968659    0.4998559   -1.0445427 
 H    2.3619612    0.1267044   -0.9612095 
 H    0.6440472   -0.9192426    1.9159475 
9
 PE=      -1151.918166 H, t=   1360.00 au
TI   -0.0299661    0.1466017   -0.2567100 
 O    0.3292832   -1.7869814    1.5451242 
 O   -1.5078497   -0.4507877   -1.1029105 
 H   -2.4249329   -0.3894720   -1.3515386 
 O   -0.2418972    1.2400209    1.3338189 
 H   -0.3330107    2.2056531    1.1478178 
 O    1.4941927    0.5005296   -1.0528797 
 H    2.3769194    0.0613702   -0.9808321 
 H    0.6347598   -0.9519513    1.9052058 
9
 PE=      -1151.914225 H, t=   1400.00 au
TI   -0.0317230    0.1547673   -0.2507910 
 O    0.3331109   -1.7964914    1.5577114 
 O   -1.5049746   -0.4492611   -1.1132852 
 H   -2.4171459   -0.4164248   -1.3401476 
 O   -0.2421222    1.2299510    1.3239065 
 H   -0.3315266    2.2148817    1.1386143 
 O    1.4924903    0.5007480   -1.0614459 
 H    2.3824522    0.0022716   -1.0033062 
 H    0.6276471   -0.9800782    1.9024007 
9
 PE=      -1151.914292 H, t=   1440.00 au
TI   -0.0338283    0.1629406   -0.2444945 
 O    0.3365576   -1.8067157    1.5693955 
 O   -1.5009517   -0.4475009   -1.1233449 
 H   -2.4187164   -0.4428270   -1.3310712 
 O   -0.2423553    1.2203388    1.3126975 
 H   -0.3280650    2.2074379    1.1350166 
 O    1.4923560    0.5001331   -1.0700995 
 H    2.3683549   -0.0440836   -1.0287607 
 H    0.6271650   -0.9915966    1.9126546 
9
 PE=      -1151.919944 H, t=   1480.00 au
TI   -0.0362500    0.1710272   -0.2379441 
 O    0.3395719   -1.8176887    1.5800784 
 O   -1.4957769   -0.4454840   -1.1329987 
 H   -2.4293796   -0.4687171   -1.3240241 
 O   -0.2426152    1.2113725    1.3003974 
 H   -0.3226862    2.1833001    1.1371771 
 O    1.4938440    0.4985388   -1.0787514 
 H    2.3326075   -0.0751122   -1.0567140 
 H    0.6338025   -0.9850391    1.9363483 
9
 PE=      -1151.924028 H, t=   1520.00 au
TI   -0.0389701    0.1790176   -0.2312018 
 O    0.3424055   -1.8288128    1.5901084 
 O   -1.4897997   -0.4431818   -1.1423548 
 H   -2.4427272   -0.4942543   -1.3173519 
 O   -0.2428906    1.2027320    1.2871814 
 H   -0.3159900    2.1491119    1.1441841 
 O    1.4965581    0.4960724   -1.0874094 
 H    2.2799634   -0.0929821   -1.0867948 
 H    0.6437999   -0.9708318    1.9688600 
9
 PE=      -1151.921648 H, t=   1560.00 au
TI   -0.0419697    0.1869047   -0.2243299 
 O    0.3453689   -1.8393295    1.5999279 
 O   -1.4834656   -0.4405916   -1.1515362 
 H   -2.4507777   -0.5191683   -1.3093702 
 O   -0.2431487    1.1937379    1.2732717 
 H   -0.3089759    2.1173562    1.1545432 
 O    1.4996821    0.4931680   -1.0960676 
 H    2.2217696   -0.1052101   -1.1189730 
 H    0.6525031   -0.9620565    2.0042238 
9
 PE=      -1151.917810 H, t=   1600.00 au
TI   -0.0451983    0.1945980   -0.2174663 
 O    0.3486530   -1.8486285    1.6097930 
 O   -1.4771309   -0.4377498   -1.1605329 
 H   -2.4478878   -0.5427120   -1.2992055 
 O   -0.2433634    1.1837333    1.2590347 
 H   -0.3026719    2.1021841    1.1670087 
 O    1.5020712    0.4906290   -1.1045821 
 H    2.1746828   -0.1246462   -1.1537927 
 H    0.6566320   -0.9679045    2.0375950 
9
 PE=      -1151.920117 H, t=   1640.00 au
TI   -0.0485861    0.2019716   -0.2107880 
 O    0.3523088   -1.8564273    1.6197781 
 O   -1.4709177   -0.4346984   -1.1692521 
 H   -2.4328463   -0.5642473   -1.2869162 
 O   -0.2435637    1.1726868    1.2448480 
 H   -0.2973691    2.1088782    1.1817293 
 O    1.5029077    0.4891589   -1.1127301 
 H    2.1502942   -0.1622118   -1.1924823 
 H    0.6549195   -0.9918681    2.0663367 
9
 PE=      -1151.922989 H, t=   1680.00 au
TI   -0.0520654    0.2089169   -0.2044616 
 O    0.3562717   -1.8628356    1.6298241 
 O   -1.4646489   -0.4314426   -1.1775973 
 H   -2.4092738   -0.5838150   -1.2732213 
 O   -0.2438443    1.1614533    1.2310287 
 H   -0.2924332    2.1284469    1.1999203 
 O    1.5024393    0.4885770   -1.1203923 
 H    2.1434129   -0.2147556   -1.2352972 
 H    0.6481149   -1.0317932    2.0906025 
9
 PE=      -1151.919055 H, t=   1720.00 au
TI   -0.0556153    0.2154241   -0.1985653 
 O    0.3604146   -1.8684095    1.6398281 
 O   -1.4578344   -0.4278961   -1.1855901 
 H   -2.3842475   -0.6025576   -1.2589229 
 O   -0.2443215    1.1511152    1.2177560 
 H   -0.2869718    2.1461573    1.2225239 
 O    1.5015351    0.4879961   -1.1277224 
 H    2.1389322   -0.2686292   -1.2807399 
 H    0.6388053   -1.0806222    2.1140433 
9
 PE=      -1151.911869 H, t=   1760.00 au
TI   -0.0591725    0.2213935   -0.1932588 
 O    0.3644691   -1.8738947    1.6493698 
 O   -1.4500147   -0.4239774   -1.1931741 
 H   -2.3658414   -0.6219136   -1.2447499 
 O   -0.2450916    1.1426950    1.2054608 
 H   -0.2805095    2.1504129    1.2493202 
 O    1.5008856    0.4865965   -1.1348506 
 H    2.1247931   -0.3104810   -1.3258212 
 H    0.6311727   -1.1266046    2.1432181 
9
 PE=      -1151.909359 H, t=   1800.00 au
TI   -0.0626437    0.2266789   -0.1887412 
 O    0.3681510   -1.8799363    1.6579102 
 O   -1.4410607   -0.4196706   -1.2002769 
 H   -2.3581625   -0.6427103   -1.2309664 
 O   -0.2462186    1.1368701    1.1947060 
 H   -0.2730521    2.1361809    1.2793879 
 O    1.5007905    0.4839332   -1.1418218 
 H    2.0954306   -0.3324518   -1.3676866 
 H    0.6291860   -1.1585076    2.1850941 
9
 PE=      -1151.912011 H, t=   1840.00 au
TI   -0.0659482    0.2311726   -0.1851705 
 O    0.3714077   -1.8865806    1.6653034 
 O   -1.4312882   -0.4150550   -1.2068907 
 H   -2.3580389   -0.6642935   -1.2173766 
 O   -0.2477406    1.1338007    1.1859562 
 H   -0.2649016    2.1056447    1.3120706 
 O    1.5012052    0.4799431   -1.1486270 
 H    2.0508517   -0.3330773   -1.4049525 
 H    0.6332911   -1.1750514    2.2409336 
9
 PE=      -1151.912705 H, t=   1880.00 au
TI   -0.0690476    0.2348459   -0.1826287 
 O    0.3744695   -1.8932829    1.6720162 
 O   -1.4211970   -0.4102552   -1.2130885 
 H   -2.3577813   -0.6848690   -1.2037344 
 O   -0.2496913    1.1331101    1.1794326 
 H   -0.2563995    2.0676245    1.3480414 
 O    1.5018062    0.4749054   -1.1552149 
 H    1.9952531   -0.3172282   -1.4386778 
 H    0.6400621   -1.1857457    2.3041984 
9
 PE=      -1151.908344 H, t=   1920.00 au
TI   -0.0719100    0.2376925   -0.1811704 
 O    0.3776208   -1.8993907    1.6787155 
 O   -1.4112384   -0.4054055   -1.2189319 
 H   -2.3502597   -0.7024453   -1.1901225 
 O   -0.2521065    1.1340632    1.1751791 
 H   -0.2477591    2.0358611    1.3896961 
 O    1.5020217    0.4695118   -1.1613602 
 H    1.9367183   -0.2965447   -1.4729079 
 H    0.6452843   -1.2019067    2.3653377 
9
 PE=      -1151.905817 H, t=   1960.00 au
TI   -0.0744732    0.2396901   -0.1808419 
 O    0.3810250   -1.9044288    1.6858646 
 O   -1.4017573   -0.4006479   -1.2244041 
 H   -2.3319249   -0.7156080   -1.1770062 
 O   -0.2550065    1.1359770    1.1731569 
 H   -0.2389803    2.0226836    1.4399641 
 O    1.5011729    0.4648278   -1.1665699 
 H    1.8856386   -0.2879181   -1.5144902 
 H    0.6460375   -1.2307005    2.4160991 
9
 PE=      -1151.910658 H, t=   2000.00 au
TI   -0.0766689    0.2408400   -0.1816394 
 O    0.3847112   -1.9082142    1.6936363 
 O   -1.3928665   -0.3960661   -1.2294726 
 H   -2.3039955   -0.7243095   -1.1648877 
 O   -0.2583858    1.1388281    1.1733574 
 H   -0.2299860    2.0282801    1.4991123 
 O    1.4989407    0.4615417   -1.1704208 
 H    1.8472824   -0.3017975   -1.5687205 
 H    0.6412505   -1.2740961    2.4519966 
9
 PE=      -1151.915609 H, t=   2040.00 au
TI   -0.0784614    0.2411946   -0.1835029 
 O    0.3886299   -1.9108944    1.7019736 
 O   -1.3843231   -0.3916026   -1.2341864 
 H   -2.2719503   -0.7302741   -1.1538470 
 O   -0.2622235    1.1432787    1.1759075 
 H   -0.2209706    2.0405113    1.5632467 
 O    1.4956306    0.4591623   -1.1730892 
 H    1.8166902   -0.3303483   -1.6327281 
 H    0.6316091   -1.3298447    2.4737450 
9
 PE=      -1151.915317 H, t=   2080.00 au
TI   -0.0798504    0.2408358   -0.1863590 
 O    0.3926931   -1.9128913    1.7106164 
 O   -1.3755970   -0.3870588   -1.2387010 
 H   -2.2433025   -0.7365088   -1.1433812 
 O   -0.2665182    1.1500744    1.1810032 
 H   -0.2123710    2.0459685    1.6272153 
 O    1.4917024    0.4565840   -1.1752118 
 H    1.7853423   -0.3569037   -1.6980800 
 H    0.6192367   -1.3928323    2.4876712 
9
 PE=      -1151.913792 H, t=   2120.00 au
TI   -0.0808031    0.2398547   -0.1900691 
 O    0.3966581   -1.9147220    1.7188093 
 O   -1.3664109   -0.3823397   -1.2430944 
 H   -2.2249297   -0.7457098   -1.1330394 
 O   -0.2711785    1.1594972    1.1886610 
 H   -0.2048672    2.0361914    1.6854453 
 O    1.4874932    0.4529841   -1.1773507 
 H    1.7483538   -0.3679850   -1.7554306 
 H    0.6076578   -1.4544204    2.5048470 
9
 PE=      -1151.917032 H, t=   2160.00 au
TI   -0.0812949    0.2383710   -0.1944455 
 O    0.4002923   -1.9168146    1.7257307 
 O   -1.3568727   -0.3775012   -1.2474175 
 H   -2.2179415   -0.7583847   -1.1228278 
 O   -0.2761017    1.1713331    1.1986226 
 H   -0.1989144    2.0092148    1.7347597 
 O    1.4831361    0.4479926   -1.1798534 
 H    1.7045381   -0.3572510   -1.7988586 
 H    0.6001238   -1.5072219    2.5370875 
9
 PE=      -1151.923708 H, t=   2200.00 au
TI   -0.0813162    0.2365170   -0.1992938 
 O    0.4035637   -1.9191898    1.7311972 
 O   -1.3474383   -0.3727508   -1.2517003 
 H   -2.2169797   -0.7723253   -1.1135086 
 O   -0.2812302    1.1849930    1.2103854 
 H   -0.1944348    1.9691441    1.7758759 
 O    1.4785957    0.4416120   -1.1828269 
 H    1.6550436   -0.3247730   -1.8269945 
 H    0.5969830   -1.5508324    2.5868805 
9
 PE=      -1151.926367 H, t=   2240.00 au
TI   -0.0808655    0.2344158   -0.2044470 
 O    0.4066535   -1.9215237    1.7358733 
 O   -1.3386155   -0.3683302   -1.2559804 
 H   -2.2145285   -0.7842647   -1.1062260 
 O   -0.2865876    1.1996501    1.2232452 
 H   -0.1905917    1.9251243    1.8142701 
 O    1.4737079    0.4341483   -1.1861067 
 H    1.6022549   -0.2761116   -1.8436073 
 H    0.5955949   -1.5909820    2.6443545 
9
 PE=      -1151.922963 H, t=   2280.00 au
TI   -0.0799427    0.2321878   -0.2097318 
 O    0.4097625   -1.9234825    1.7406627 
 O   -1.3308018   -0.3644447   -1.2602911 
 H   -2.2051189   -0.7916267   -1.1020070 
 O   -0.2922318    1.2143170    1.2362705 
 H   -0.1858669    1.8887194    1.8588655 
 O    1.4682743    0.4262710   -1.1891468 
 H    1.5494385   -0.2224938   -1.8584947 
 H    0.5928851   -1.6333110    2.6954778 
9
 PE=      -1151.920417 H, t=   2320.00 au
TI   -0.0785582    0.2299593   -0.2149434 
 O    0.4129931   -1.9248909    1.7461997 
 O   -1.3242075   -0.3612170   -1.2646595 
 H   -2.1872451   -0.7935095   -1.1013718 
 O   -0.2981685    1.2282255    1.2485902 
 H   -0.1789473    1.8668479    1.9161909 
 O    1.4621959    0.4188893   -1.1910700 
 H    1.4995332   -0.1783188   -1.8863414 
 H    0.5869666   -1.6803041    2.7294549 
9
 PE=      -1151.922475 H, t=   2360.00 au
TI   -0.0767350    0.2278424   -0.2198864 
 O    0.4163548   -1.9257361    1.7527240 
 O   -1.3187658   -0.3586306   -1.2691429 
 H   -2.1638033   -0.7911573   -1.1040586 
 O   -0.3042966    1.2413021    1.2599618 
 H   -0.1701107    1.8555460    1.9831038 
 O    1.4555577    0.4124635   -1.1913431 
 H    1.4531242   -0.1505260   -1.9363977 
 H    0.5773648   -1.7317545    2.7416223 
9
 PE=      -1151.922583 H, t=   2400.00 au
TI   -0.0744944    0.2259105   -0.2244306 
 O    0.4198110   -1.9261174    1.7601173 
 O   -1.3141192   -0.3565156   -1.2738669 
 H   -2.1411204   -0.7877054   -1.1090606 
 O   -0.3104724    1.2540030    1.2707952 
 H   -0.1610835    1.8446268    2.0489692 
 O    1.4484945    0.4065277   -1.1904943 
 H    1.4091093   -0.1316958   -2.0015090 
 H    0.5647171   -1.7862116    2.7340148 
9
 PE=      -1151.917565 H, t=   2440.00 au
TI   -0.0718485    0.2242045   -0.2284993 
 O    0.4232914   -1.9261761    1.7678959 
 O   -1.3097977   -0.3546362   -1.2789971 
 H   -2.1264090   -0.7869165   -1.1151048 
 O   -0.3165916    1.2667843    1.2816249 
 H   -0.1536688    1.8257963    2.1035815 
 O    1.4410373    0.4002954   -1.1896411 
 H    1.3671213   -0.1097039   -2.0654520 
 H    0.5505003   -1.8419398    2.7152585 
9
 PE=      -1151.911981 H, t=   2480.00 au
TI   -0.0688444    0.2227744   -0.2319764 
 O    0.4266479   -1.9260169    1.7751036 
 O   -1.3055675   -0.3528693   -1.2845960 
 H   -2.1240214   -0.7910542   -1.1213778 
 O   -0.3225254    1.2796845    1.2926104 
 H   -0.1490370    1.7955032    2.1403650 
 O    1.4332440    0.3933263   -1.1897482 
 H    1.3283918   -0.0769813   -2.1138261 
 H    0.5369186   -1.8969919    2.7001505 
9
 PE=      -1151.911173 H, t=   2520.00 au
TI   -0.0655485    0.2216596   -0.2347559 
 O    0.4297525   -1.9256357    1.7807808 
 O   -1.3015738   -0.3512892   -1.2906220 
 H   -2.1319561   -0.7990508   -1.1281963 
 O   -0.3282028    1.2924697    1.3035574 
 H   -0.1472806    1.7545733    2.1584899 
 O    1.4251875    0.3855303   -1.1913656 
 H    1.2944128   -0.0313594   -2.1388318 
 H    0.5257747   -1.9510365    2.7033852 
9
 PE=      -1151.913645 H, t=   2560.00 au
TI   -0.0620281    0.2208820   -0.2367630 
 O    0.4325992   -1.9249408    1.7847773 
 O   -1.2982140   -0.3501085   -1.2969806 
 H   -2.1434348   -0.8072920   -1.1367252 
 O   -0.3336575    1.3047602    1.3139466 
 H   -0.1471737    1.7071885    2.1636741 
 O    1.4169411    0.3770304   -1.1946265 
 H    1.2661331    0.0256095   -2.1396312 
 H    0.5170965   -2.0053621    2.7272566 
9
 PE=      -1151.913050 H, t=   2600.00 au
TI   -0.0583327    0.2204475   -0.2379566 
 O    0.4352925   -1.9239001    1.7879101 
 O   -1.2958479   -0.3495267   -1.3036076 
 H   -2.1515104   -0.8120746   -1.1481529 
 O   -0.3390532    1.3161619    1.3229950 
 H   -0.1461308    1.6592505    2.1677078 
 O    1.4085709    0.3680498   -1.1992503 
 H    1.2433861    0.0901284   -2.1225073 
 H    0.5094616   -2.0606966    2.7594801 
9
 PE=      -1151.922520 H, t=   2640.00 au
TI   -0.0545220    0.2203582   -0.2383011 
 O    0.4379276   -1.9225966    1.7912133 
 O   -1.2946477   -0.3496398   -1.3104503 
 H   -2.1520880   -0.8112225   -1.1630920 
 O   -0.3445781    1.3263286    1.3298269 
 H   -0.1410472    1.6157786    2.1838448 
 O    1.4002523    0.3589249   -1.2044535 
 H    1.2245621    0.1567197   -2.1017907 
 H    0.5015510   -2.1158578    2.7842639 
9
 PE=      -1151.918465 H, t=   2680.00 au
TI   -0.0506556    0.2204133   -0.2374857 
 O    0.4405684   -1.9213931    1.7944488 
 O   -1.2942733   -0.3501925   -1.3172653 
 H   -2.1457447   -0.8055098   -1.1803143 
 O   -0.3502958    1.3351648    1.3335859 
 H   -0.1300734    1.5770050    2.2175516 
 O    1.3921103    0.3501024   -1.2088248 
 H    1.2065850    0.2195702   -2.0984909 
 H    0.4906062   -2.1588107    2.7922685 
9
 PE=      -1151.918187 H, t=   2720.00 au
TI   -0.0460846    0.2206017   -0.2353538 
 O    0.4437503   -1.9201608    1.7984679 
 O   -1.2943338   -0.3511128   -1.3253145 
 H   -2.1347663   -0.7957069   -1.2023577 
 O   -0.3571342    1.3445772    1.3355802 
 H   -0.1132774    1.5316062    2.2655430 
 O    1.3828538    0.3399740   -1.2125695 
 H    1.1838442    0.2899541   -2.1231403 
 H    0.4742805   -2.1961429    2.7814110 
9
 PE=      -1151.917109 H, t=   2760.00 au
TI   -0.0415803    0.2208791   -0.2320433 
 O    0.4470346   -1.9191218    1.8025893 
 O   -1.2943675   -0.3520162   -1.3333897 
 H   -2.1268458   -0.7862317   -1.2250892 
 O   -0.3638062    1.3532680    1.3361923 
 H   -0.0967940    1.4821769    2.3051172 
 O    1.3739448    0.3299518   -1.2155473 
 H    1.1609614    0.3594504   -2.1676347 
 H    0.4544302   -2.2198841    2.7520567 
