21
O   -6.8117381   3.4595796   0.0029335
C   -5.7216478   2.8707448   0.0013385
C   -4.4348731   3.5452103   0.0045764
C   -3.2531015   2.8403188   0.0026474
C   -3.2340551   1.4008789  -0.0027133
C   -4.4737326   0.7034700  -0.0060358
C   -5.6422345   1.4048733  -0.0040951
S   -1.6157756   3.4241695   0.0058077
C   -1.0583751   1.7446135  -0.0001276
N   -2.0207710   0.8437951  -0.0040662
C    0.3182677   1.4165633  -0.0005116
S    0.7643403  -0.3082045  -0.0066373
N   1.2897944   2.2900858   0.0033428
C    2.5355001   1.7211731   0.0020153
C    2.4996733   0.1802397  -0.0037318
H   3.0212415  -0.1961605   0.8866843
H   3.0223923  -0.1895294  -0.8962514
O   3.5926833   2.3185410   0.0048960
Br  -4.4145662   5.4330358   0.0116693
H   -4.4573940  -0.3881333  -0.0100862
H   -6.6069278   0.8930852  -0.0065650
