9
 PE=      -1151.887055 H, t=      0.00 au
TI   -0.0213352   -0.0164997   -0.0008675 
 O    0.3014083   -1.4427866    1.0701231 
 O   -1.3862074   -0.3167550   -1.0781942 
 H   -2.2321384   -0.1661231   -1.4952962 
 O   -0.2201221    1.2730824    1.0625704 
 H    0.3917831    1.6943580    1.6616943 
 O    1.2744698    0.5416220   -1.0596541 
 H    2.0399726    0.0190355   -1.4502690 
 H    1.2976069   -1.6387757    1.4069125 
9
 PE=      -1151.888120 H, t=     40.00 au
TI   -0.0238723   -0.0143649   -0.0015736 
 O    0.3037727   -1.4435449    1.0707690 
 O   -1.3844356   -0.3192074   -1.0785078 
 H   -2.2104230   -0.1433001   -1.4871075 
 O   -0.2210120    1.2700392    1.0651471 
 H    0.4122701    1.7189472    1.6812565 
 O    1.2765090    0.5369535   -1.0643680 
 H    2.0407325    0.0530039   -1.4344001 
 H    1.2913169   -1.6482352    1.4255007 
9
 PE=      -1151.892613 H, t=     80.00 au
TI   -0.0263970   -0.0126533   -0.0022823 
 O    0.3084328   -1.4455377    1.0730563 
 O   -1.3836330   -0.3223821   -1.0800688 
 H   -2.1990991   -0.1171743   -1.4839237 
 O   -0.2218144    1.2694608    1.0701972 
 H    0.4266149    1.7403964    1.6943766 
 O    1.2802649    0.5327010   -1.0705974 
 H    2.0386498    0.0898580   -1.4163638 
 H    1.2541200   -1.6552991    1.4320317 
9
 PE=      -1151.898485 H, t=    120.00 au
TI   -0.0289120   -0.0113154   -0.0031032 
 O    0.3148714   -1.4487309    1.0769396 
 O   -1.3835143   -0.3263293   -1.0826776 
 H   -2.2006627   -0.0867958   -1.4868264 
 O   -0.2222169    1.2715268    1.0780029 
 H    0.4300056    1.7546903    1.6960797 
 O    1.2848657    0.5293072   -1.0778359 
 H    2.0456929    0.1221586   -1.4020436 
 H    1.1940423   -1.6614379    1.4286864 
9
 PE=      -1151.900717 H, t=    160.00 au
TI   -0.0314258   -0.0103066   -0.0040768 
 O    0.3218202   -1.4528166    1.0819558 
 O   -1.3842858   -0.3309950   -1.0864151 
 H   -2.2101890   -0.0530104   -1.4932236 
 O   -0.2221421    1.2761820    1.0885397 
 H    0.4216722    1.7608796    1.6857574 
 O    1.2895658    0.5270653   -1.0857275 
 H    2.0721262    0.1446812   -1.3957250 
 H    1.1310877   -1.6712698    1.4230675 
9
 PE=      -1151.902403 H, t=    200.00 au
TI   -0.0339475   -0.0095998   -0.0051826 
 O    0.3271924   -1.4571462    1.0871693 
 O   -1.3863964   -0.3362244   -1.0915022 
 H   -2.2192701   -0.0182707   -1.4988132 
 O   -0.2217316    1.2831577    1.1014942 
 H    0.4045496    1.7610106    1.6666526 
 O    1.2943520    0.5258789   -1.0942716 
 H    2.1168796    0.1585250   -1.3965033 
 H    1.0981098   -1.6937366    1.4290806 
9
 PE=      -1151.911626 H, t=    240.00 au
TI   -0.0364546   -0.0091584   -0.0063937 
 O    0.3296618   -1.4611518    1.0918694 
 O   -1.3901543   -0.3417720   -1.0980177 
 H   -2.2207788    0.0142812   -1.4999762 
 O   -0.2214274    1.2918077    1.1160788 
 H    0.3865573    1.7610212    1.6465380 
 O    1.2998233    0.5253626   -1.1035808 
 H    2.1672523    0.1692562   -1.3994573 
 H    1.1151576   -1.7354737    1.4559432 
9
 PE=      -1151.916861 H, t=    280.00 au
TI   -0.0389201   -0.0088881   -0.0077537 
 O    0.3305811   -1.4651710    1.0966097 
 O   -1.3955260   -0.3474285   -1.1058028 
 H   -2.2116642    0.0425331   -1.4952222 
 O   -0.2219167    1.3011916    1.1312775 
 H    0.3794486    1.7700164    1.6358816 
 O    1.3065743    0.5251015   -1.1136490 
 H    2.2090271    0.1821081   -1.3997883 
 H    1.1598229   -1.7896427    1.4936997 
9
 PE=      -1151.917827 H, t=    320.00 au
TI   -0.0414128   -0.0086518   -0.0094089 
 O    0.3319703   -1.4701064    1.1025326 
 O   -1.4023476   -0.3533175   -1.1148028 
 H   -2.1932578    0.0674682   -1.4852938 
 O   -0.2236605    1.3109034    1.1469672 
 H    0.3905630    1.7943375    1.6401554 
 O    1.3150773    0.5248079   -1.1246792 
 H    2.2351023    0.2000790   -1.3950334 
 H    1.2016223   -1.8457773    1.5282831 
9
 PE=      -1151.919542 H, t=    360.00 au
TI   -0.0438665   -0.0083391   -0.0114337 
 O    0.3349239   -1.4764161    1.1101453 
 O   -1.4099371   -0.3593993   -1.1244446 
 H   -2.1712675    0.0907711   -1.4730587 
 O   -0.2263825    1.3206438    1.1628852 
 H    0.4160919    1.8306660    1.6553354 
 O    1.3250742    0.5243634   -1.1362260 
 H    2.2422848    0.2230376   -1.3848658 
 H    1.2216335   -1.8940925    1.5497471 
9
 PE=      -1151.922499 H, t=    400.00 au
TI   -0.0462581   -0.0078637   -0.0138962 
 O    0.3398097   -1.4843208    1.1196411 
 O   -1.4176175   -0.3658512   -1.1342820 
 H   -2.1531681    0.1164072   -1.4621044 
 O   -0.2293305    1.3307302    1.1794358 
 H    0.4442667    1.8693630    1.6714326 
 O    1.3360419    0.5237935   -1.1479580 
 H    2.2348804    0.2489666   -1.3708932 
 H    1.2134803   -1.9301186    1.5546769 
9
 PE=      -1151.926904 H, t=    440.00 au
TI   -0.0485747   -0.0071617   -0.0168389 
 O    0.3465762   -1.4938430    1.1309856 
 O   -1.4249213   -0.3728478   -1.1440262 
 H   -2.1440596    0.1478917   -1.4547612 
 O   -0.2318503    1.3414990    1.1969808 
 H    0.4647946    1.9018158    1.6804782 
 O    1.3470869    0.5232558   -1.1595385 
 H    2.2243070    0.2741125   -1.3562604 
 H    1.1777133   -1.9527551    1.5434231 
9
 PE=      -1151.930794 H, t=    480.00 au
TI   -0.0507937   -0.0061874   -0.0202618 
 O    0.3547097   -1.5046956    1.1438340 
 O   -1.4317463   -0.3803076   -1.1535439 
 H   -2.1431175    0.1849817   -1.4506463 
 O   -0.2335728    1.3530130    1.2155262 
 H    0.4720785    1.9230630    1.6787091 
 O    1.3569999    0.5229704   -1.1705738 
 H    2.2265378    0.2938567   -1.3446432 
 H    1.1219280   -1.9647000    1.5200449 
9
 PE=      -1151.928971 H, t=    520.00 au
TI   -0.0529032   -0.0049050   -0.0241446 
 O    0.3630127   -1.5161373    1.1574876 
 O   -1.4383432   -0.3879101   -1.1628803 
 H   -2.1444204    0.2233807   -1.4472303 
 O   -0.2344374    1.3651185    1.2348704 
 H    0.4654825    1.9322851    1.6662186 
 O    1.3649931    0.5230291   -1.1808494 
 H    2.2515999    0.3058287   -1.3376566 
 H    1.0647844   -1.9760249    1.4941758 
9
 PE=      -1151.924785 H, t=    560.00 au
TI   -0.0548985   -0.0032833   -0.0284556 
 O    0.3696072   -1.5268721    1.1709377 
 O   -1.4450242   -0.3952578   -1.1721132 
 H   -2.1413903    0.2574096   -1.4418680 
 O   -0.2346987    1.3774217    1.2546221 
 H    0.4494179    1.9329153    1.6464166 
 O    1.3713178    0.5232683   -1.1903969 
 H    2.2935141    0.3118863   -1.3335113 
 H    1.0358492   -2.0058738    1.4804285 
9
 PE=      -1151.927325 H, t=    600.00 au
TI   -0.0567634   -0.0012961   -0.0331307 
 O    0.3734494   -1.5359646    1.1835648 
 O   -1.4519070   -0.4019940   -1.1811943 
 H   -2.1300232    0.2825417   -1.4331413 
 O   -0.2349508    1.3891687    1.2740775 
 H    0.4338469    1.9329356    1.6256810 
 O    1.3768319    0.5234022   -1.1992807 
 H    2.3359518    0.3158672   -1.3291153 
 H    1.0509752   -2.0667744    1.4861218 
9
 PE=      -1151.925943 H, t=    640.00 au
TI   -0.0584769    0.0010740   -0.0380860 
 O    0.3758081   -1.5441725    1.1958113 
 O   -1.4588745   -0.4079294   -1.1899671 
 H   -2.1100057    0.2971498   -1.4211743 
 O   -0.2359646    1.3994418    1.2924434 
 H    0.4315440    1.9426399    1.6110266 
 O    1.3822718    0.5232085   -1.2074971 
 H    2.3644916    0.3207269   -1.3223380 
 H    1.0890499   -2.1440700    1.5012726 
9
 PE=      -1151.920462 H, t=    680.00 au
TI   -0.0600629    0.0038869   -0.0433603 
 O    0.3784369   -1.5529878    1.2085800 
 O   -1.4657877   -0.4132609   -1.1984394 
 H   -2.0840836    0.3036325   -1.4071182 
 O   -0.2381180    1.4079830    1.3097205 
 H    0.4484531    1.9670176    1.6045732 
 O    1.3880854    0.5225816   -1.2151913 
 H    2.3728212    0.3278136   -1.3123210 
 H    1.1231697   -2.2167619    1.5139886 
9
 PE=      -1151.915464 H, t=    720.00 au
TI   -0.0614912    0.0071187   -0.0488463 
 O    0.3822338   -1.5631288    1.2220234 
 O   -1.4721494   -0.4182098   -1.2063150 
 H   -2.0581693    0.3071772   -1.3933017 
 O   -0.2409581    1.4149186    1.3257741 
 H    0.4777650    2.0002027    1.6026927 
 O    1.3941159    0.5215177   -1.2222047 
 H    2.3609722    0.3368672   -1.2994366 
 H    1.1377367   -2.2698058    1.5179970 
9
 PE=      -1151.912516 H, t=    760.00 au
TI   -0.0627491    0.0107591   -0.0544869 
 O    0.3874927   -1.5748748    1.2361274 
 O   -1.4775111   -0.4231446   -1.2133956 
 H   -2.0384967    0.3145067   -1.3819238 
 O   -0.2436507    1.4208290    1.3407906 
 H    0.5063423    2.0312320    1.5997704 
 O    1.3998061    0.5200981   -1.2284264 
 H    2.3367203    0.3463608   -1.2846706 
 H    1.1275639   -2.2971673    1.5117458 
9
 PE=      -1151.912598 H, t=    800.00 au
TI   -0.0638328    0.0148115   -0.0602543 
 O    0.3941306   -1.5881827    1.2507765 
 O   -1.4816374   -0.4282876   -1.2195943 
 H   -2.0283795    0.3296344   -1.3740254 
 O   -0.2455495    1.4261979    1.3549163 
 H    0.5239260    2.0515848    1.5922144 
 O    1.4042027    0.5184708   -1.2337695 
 H    2.3146547    0.3537016   -1.2691426 
 H    1.0939141   -2.2990839    1.4964128 
9
 PE=      -1151.913400 H, t=    840.00 au
TI   -0.0647405    0.0192725   -0.0661138 
 O    0.4016394   -1.6025543    1.2656789 
 O   -1.4845847   -0.4334797   -1.2249087 
 H   -2.0264193    0.3505839   -1.3691447 
 O   -0.2463482    1.4312169    1.3681192 
 H    0.5257146    2.0573148    1.5789467 
 O    1.4062705    0.5167927   -1.2381697 
 H    2.3106422    0.3562240   -1.2534696 
 H    1.0447638   -2.2827766    1.4756617 
9
 PE=      -1151.908375 H, t=    880.00 au
TI   -0.0654775    0.0241487   -0.0720506 
 O    0.4088947   -1.6168177    1.2803933 
 O   -1.4866191   -0.4382952   -1.2294082 
 H   -2.0280844    0.3708724   -1.3659555 
 O   -0.2460864    1.4358145    1.3802971 
 H    0.5124258    2.0491559    1.5607711 
 O    1.4056947    0.5150909   -1.2416379 
 H    2.3293760    0.3533542   -1.2373142 
 H    0.9981179   -2.2668843    1.4562271 
9
 PE=      -1151.903309 H, t=    920.00 au
TI   -0.0660531    0.0294562   -0.0780693 
 O    0.4142757   -1.6291737    1.2944292 
 O   -1.4880110   -0.4423049   -1.2331682 
 H   -2.0289205    0.3837578   -1.3632414 
 O   -0.2451519    1.4396467    1.3913018 
 H    0.4903631    2.0325214    1.5398311 
 O    1.4031606    0.5132207   -1.2442073 
 H    2.3597946    0.3472564   -1.2201200 
 H    0.9800239   -2.2806273    1.4462746 
9
 PE=      -1151.906461 H, t=    960.00 au
TI   -0.0664654    0.0351218   -0.0840812 
 O    0.4171186   -1.6386762    1.3074712 
 O   -1.4888878   -0.4451802   -1.2361654 
 H   -2.0264264    0.3849034   -1.3604182 
 O   -0.2442899    1.4420292    1.4007633 
 H    0.4716743    2.0175937    1.5193611 
 O    1.3997238    0.5110194   -1.2458301 
 H    2.3851317    0.3410218   -1.2021942 
 H    1.0001373   -2.3362531    1.4478272 
9
 PE=      -1151.906081 H, t=   1000.00 au
TI   -0.0667144    0.0410612   -0.0900052 
 O    0.4187510   -1.6467214    1.3197639 
 O   -1.4892383   -0.4468652   -1.2383623 
 H   -2.0207505    0.3740796   -1.3575771 
 O   -0.2443018    1.4422819    1.4084154 
 H    0.4693306    2.0152149    1.5018810 
 O    1.3961726    0.5083889   -1.2464598 
 H    2.3934768    0.3368956   -1.1843146 
 H    1.0365039   -2.4089826    1.4543867 
9
 PE=      -1151.902840 H, t=   1040.00 au
TI   -0.0668132    0.0474269   -0.0960084 
 O    0.4206673   -1.6552825    1.3320356 
 O   -1.4889252   -0.4476483   -1.2397983 
 H   -2.0144322    0.3547924   -1.3553071 
 O   -0.2453607    1.4402886    1.4145033 
 H    0.4861039    2.0278930    1.4868538 
 O    1.3926952    0.5052149   -1.2461039 
 H    2.3810653    0.3356365   -1.1665501 
 H    1.0671379   -2.4732844    1.4603841 
9
 PE=      -1151.900676 H, t=   1080.00 au
TI   -0.0667622    0.0540573   -0.1019403 
 O    0.4235745   -1.6651118    1.3441543 
 O   -1.4876649   -0.4479146   -1.2403662 
 H   -2.0123400    0.3341253   -1.3547978 
 O   -0.2468438    1.4365602    1.4189563 
 H    0.5121966    2.0479295    1.4731166 
 O    1.3892384    0.5015964   -1.2447571 
 H    2.3505991    0.3370679   -1.1496137 
 H    1.0792526   -2.5123043    1.4631632 
9
 PE=      -1151.901499 H, t=   1120.00 au
TI   -0.0665716    0.0609185   -0.1077749 
 O    0.4276966   -1.6764982    1.3561223 
 O   -1.4851752   -0.4480980   -1.2400110 
 H   -2.0193825    0.3190736   -1.3571662 
 O   -0.2479033    1.4318076    1.4218576 
 H    0.5341188    2.0645361    1.4594017 
 O    1.3852343    0.4976544   -1.2424831 
 H    2.3122028    0.3397281   -1.1331307 
 H    1.0691380   -2.5209181    1.4622803 
9
 PE=      -1151.906129 H, t=   1160.00 au
TI   -0.0662583    0.0680045   -0.1135069 
 O    0.4329245   -1.6893202    1.3679141 
 O   -1.4813503   -0.4483626   -1.2387240 
 H   -2.0375589    0.3121864   -1.3628256 
 O   -0.2479637    1.4265175    1.4232524 
 H    0.5427023    2.0703487    1.4452791 
 O    1.3797576    0.4935567   -1.2394086 
 H    2.2815707    0.3412297   -1.1156984 
 H    1.0386707   -2.5013464    1.4584791 
9
 PE=      -1151.910660 H, t=   1200.00 au
TI   -0.0658472    0.0753029   -0.1191208 
 O    0.4387494   -1.7029040    1.3794242 
 O   -1.4763775   -0.4484743   -1.2365660 
 H   -2.0642045    0.3096502   -1.3710753 
 O   -0.2468110    1.4208845    1.4231410 
 H    0.5345710    2.0627163    1.4309559 
 O    1.3720351    0.4894533   -1.2356893 
 H    2.2723034    0.3395760   -1.0956258 
 H    0.9960678   -2.4644215    1.4535438 
9
 PE=      -1151.907909 H, t=   1240.00 au
TI   -0.0653684    0.0828271   -0.1246170 
 O    0.4440857   -1.7157810    1.3905178 
 O   -1.4706195   -0.4479889   -1.2336430 
 H   -2.0937178    0.3042392   -1.3804658 
 O   -0.2445731    1.4147961    1.4215058 
 H    0.5118764    2.0435875    1.4168730 
 O    1.3621473    0.4853387   -1.2313817 
 H    2.2842340    0.3350743   -1.0727008 
 H    0.9589234   -2.4342983    1.4503728 
9
 PE=      -1151.907480 H, t=   1280.00 au
TI   -0.0648571    0.0905866   -0.1299874 
 O    0.4474952   -1.7259273    1.4010552 
 O   -1.4644401   -0.4465201   -1.2300671 
 H   -2.1205678    0.2896491   -1.3894894 
 O   -0.2417229    1.4078408    1.4183224 
 H    0.4823174    2.0196623    1.4034836 
 O    1.3510244    0.4810804   -1.2264152 
 H    2.3039767    0.3301512   -1.0489234 
 H    0.9503997   -2.4438725    1.4518938 
9
 PE=      -1151.914394 H, t=   1320.00 au
TI   -0.0643627    0.0984130   -0.1350952 
 O    0.4486965   -1.7327682    1.4108480 
 O   -1.4582219   -0.4439122   -1.2260083 
 H   -2.1406887    0.2630140   -1.3969030 
 O   -0.2390937    1.3994980    1.4136535 
 H    0.4589855    2.0024156    1.3912841 
 O    1.3399784    0.4766386   -1.2208037 
 H    2.3159625    0.3274916   -1.0275327 
 H    0.9741989   -2.4991324    1.4580213 
9
 PE=      -1151.916586 H, t=   1360.00 au
TI   -0.0639248    0.1063001   -0.1399172 
 O    0.4490889   -1.7382957    1.4201120 
 O   -1.4520359   -0.4402327   -1.2215292 
 H   -2.1537918    0.2250267   -1.4024767 
 O   -0.2373550    1.3891928    1.4075495 
 H    0.4525933    2.0016460    1.3801484 
 O    1.3297412    0.4719576   -1.2145357 
 H    2.3110206    0.3285778   -1.0104661 
 H    1.0083101   -2.5690597    1.4660651 
9
 PE=      -1151.915876 H, t=   1400.00 au
TI   -0.0635777    0.1143840   -0.1445109 
 O    0.4498979   -1.7444210    1.4291894 
 O   -1.4456375   -0.4356846   -1.2165583 
 H   -2.1632136    0.1788587   -1.4070172 
 O   -0.2364388    1.3767754    1.3999492 
 H    0.4624199    2.0174182    1.3698495 
 O    1.3204292    0.4669743   -1.2075815 
 H    2.2871013    0.3337378   -0.9981181 
 H    1.0341896   -2.6267409    1.4741224 
9
 PE=      -1151.915354 H, t=   1440.00 au
TI   -0.0633759    0.1225007   -0.1487458 
 O    0.4517023   -1.7519502    1.4379961 
 O   -1.4388434   -0.4307318   -1.2111456 
 H   -2.1746484    0.1309984   -1.4119532 
 O   -0.2356797    1.3631147    1.3910108 
 H    0.4773591    2.0398957    1.3609042 
 O    1.3121246    0.4618694   -1.2002535 
 H    2.2494388    0.3422326   -0.9901281 
 H    1.0420451   -2.6568133    1.4811182 
9
 PE=      -1151.917079 H, t=   1480.00 au
TI   -0.0633686    0.1306448   -0.1525849 
 O    0.4546626   -1.7611656    1.4465796 
 O   -1.4313423   -0.4257014   -1.2052457 
 H   -2.1941106    0.0861316   -1.4189071 
 O   -0.2343326    1.3489668    1.3807715 
 H    0.4854236    2.0577460    1.3536178 
 O    1.3042679    0.4567807   -1.1928413 
 H    2.2102690    0.3525221   -0.9842133 
 H    1.0295388   -2.6553351    1.4868652 
9
 PE=      -1151.922257 H, t=   1520.00 au
TI   -0.0636084    0.1387951   -0.1559824 
 O    0.4586403   -1.7718769    1.4549339 
 O   -1.4231134   -0.4206773   -1.1989003 
 H   -2.2231533    0.0449821   -1.4282780 
 O   -0.2319577    1.3348635    1.3693012 
 H    0.4794701    2.0636263    1.3481161 
 O    1.2960604    0.4518654   -1.1857159 
 H    2.1860098    0.3628522   -0.9770297 
 H    0.9990109   -2.6255560    1.4916451 
9
 PE=      -1151.925893 H, t=   1560.00 au
TI   -0.0641483    0.1469197   -0.1588884 
 O    0.4631246   -1.7832897    1.4630067 
 O   -1.4145537   -0.4155000   -1.1922803 
 H   -2.2568577    0.0043196   -1.4385807 
 O   -0.2284545    1.3210400    1.3567000 
 H    0.4577717    2.0553003    1.3443909 
 O    1.2871032    0.4472187   -1.1791823 
 H    2.1869220    0.3725098   -0.9664358 
 H    0.9586892   -2.5801669    1.4962700 
9
 PE=      -1151.920571 H, t=   1600.00 au
TI   -0.0650418    0.1550167   -0.1612669 
 O    0.4670742   -1.7937422    1.4707333 
 O   -1.4062452   -0.4099392   -1.1856030 
 H   -2.2871052   -0.0401024   -1.4473300 
 O   -0.2240194    1.3073602    1.3430354 
 H    0.4234960    2.0357720    1.3424166 
 O    1.2779596    0.4428146   -1.1733025 
 H    2.2073858    0.3824156   -0.9537479 
 H    0.9253727   -2.5462099    1.5022699 
9
 PE=      -1151.918820 H, t=   1640.00 au
TI   -0.0663376    0.1630708   -0.1630824 
 O    0.4692265   -1.8011350    1.4780241 
 O   -1.3987215   -0.4038795   -1.1790825 
 H   -2.3068483   -0.0907970   -1.4523035 
 O   -0.2191464    1.2933650    1.3283970 
 H    0.3845117    2.0137034    1.3423682 
 O    1.2698333    0.4386039   -1.1680082 
 H    2.2317734    0.3938920   -0.9425282 
 H    0.9193422   -2.5575274    1.5114390 
9
 PE=      -1151.924041 H, t=   1680.00 au
TI   -0.0680495    0.1709069   -0.1642763 
 O    0.4695524   -1.8052805    1.4847481 
 O   -1.3924487   -0.3974676   -1.1729959 
 H   -2.3122477   -0.1470665   -1.4522613 
 O   -0.2146056    1.2786112    1.3131621 
 H    0.3522667    2.0025518    1.3448580 
 O    1.2639718    0.4346541   -1.1633551 
 H    2.2456374    0.4073881   -0.9361120 
 H    0.9406999   -2.6150726    1.5238504 
9
 PE=      -1151.924414 H, t=   1720.00 au
TI   -0.0701988    0.1785342   -0.1648620 
 O    0.4693521   -1.8083792    1.4910714 
 O   -1.3874185   -0.3908266   -1.1673733 
 H   -2.3047574   -0.2075940   -1.4476044 
 O   -0.2108085    1.2625849    1.2973977 
 H    0.3332298    2.0116192    1.3507921 
 O    1.2609417    0.4309653   -1.1593453 
 H    2.2421237    0.4229002   -0.9359155 
 H    0.9690587   -2.6848770    1.5378609 
9
 PE=      -1151.921007 H, t=   1760.00 au
TI   -0.0728047    0.1860049   -0.1648796 
 O    0.4696421   -1.8122521    1.4971969 
 O   -1.3833114   -0.3840822   -1.1621146 
 H   -2.2903210   -0.2707512   -1.4401429 
 O   -0.2075127    1.2455008    1.2811489 
 H    0.3235805    2.0374322    1.3605120 
 O    1.2608038    0.4275253   -1.1560274 
 H    2.2216380    0.4402216   -0.9417709 
 H    0.9886709   -2.7396709    1.5519225 
9
 PE=      -1151.916809 H, t=   1800.00 au
TI   -0.0758142    0.1931834   -0.1643883 
 O    0.4708893   -1.8177180    1.5031305 
 O   -1.3797322   -0.3774876   -1.1571849 
 H   -2.2781183   -0.3339293   -1.4327746 
 O   -0.2041868    1.2286120    1.2649673 
 H    0.3137972    2.0662996    1.3728751 
 O    1.2631584    0.4243907   -1.1535967 
 H    2.1922204    0.4588811   -0.9519319 
 H    0.9919129   -2.7652422    1.5648373 
9
 PE=      -1151.915532 H, t=   1840.00 au
TI   -0.0791813    0.2000205   -0.1634831 
 O    0.4732030   -1.8250100    1.5089108 
 O   -1.3763339   -0.3711214   -1.1525086 
 H   -2.2754044   -0.3966918   -1.4277734 
 O   -0.2003657    1.2129654    1.2492891 
 H    0.2958825    2.0851988    1.3861482 
 O    1.2670738    0.4215246   -1.1522353 
 H    2.1687453    0.4792121   -0.9632998 
 H    0.9771303   -2.7580724    1.5761896 
9
 PE=      -1151.919231 H, t=   1880.00 au
TI   -0.0828369    0.2064480   -0.1622827 
 O    0.4764351   -1.8338826    1.5145234 
 O   -1.3732336   -0.3650148   -1.1481582 
 H   -2.2821062   -0.4593824   -1.4251385 
 O   -0.1958673    1.1992921    1.2345841 
 H    0.2663007    2.0868632    1.3989257 
 O    1.2715105    0.4188373   -1.1520891 
 H    2.1668435    0.5023268   -0.9727530 
 H    0.9466950   -2.7220064    1.5861328 
9
 PE=      -1151.920520 H, t=   1920.00 au
TI   -0.0867020    0.2124016   -0.1609190 
 O    0.4801111   -1.8434655    1.5198946 
 O   -1.3709956   -0.3592379   -1.1443369 
 H   -2.2909180   -0.5216527   -1.4226386 
 O   -0.1907516    1.1879074    1.2212597 
 H    0.2254675    2.0705784    1.4107916 
 O    1.2761442    0.4162462   -1.1531189 
 H    2.1900526    0.5291240   -0.9796703 
 H    0.9081793   -2.6709224    1.5958125 
9
 PE=      -1151.911401 H, t=   1960.00 au
TI   -0.0907162    0.2178583   -0.1595238 
 O    0.4833052   -1.8519891    1.5248738 
 O   -1.3702598   -0.3539000   -1.1412414 
 H   -2.2930038   -0.5822576   -1.4175774 
 O   -0.1852403    1.1786285    1.2095392 
 H    0.1767077    2.0421957    1.4229140 
 O    1.2816454    0.4137563   -1.1550939 
 H    2.2261806    0.5589352   -0.9863600 
 H    0.8764770   -2.6336879    1.6082329 
9
 PE=      -1151.907630 H, t=   2000.00 au
TI   -0.0947924    0.2227610   -0.1582433 
 O    0.4849408   -1.8572688    1.5291897 
 O   -1.3714805   -0.3491687   -1.1390179 
 H   -2.2825285   -0.6391174   -1.4082640 
 O   -0.1797239    1.1709151    1.1995899 
 H    0.1258055    2.0143379    1.4384817 
 O    1.2889144    0.4114735   -1.1577379 
 H    2.2585075    0.5895355   -0.9955401 
 H    0.8687568   -2.6451800    1.6277768 
9
 PE=      -1151.912604 H, t=   2040.00 au
TI   -0.0987344    0.2269312   -0.1572610 
 O    0.4850818   -1.8592838    1.5326857 
 O   -1.3747645   -0.3452798   -1.1377589 
 H   -2.2587066   -0.6894144   -1.3947476 
 O   -0.1747168    1.1642234    1.1917059 
 H    0.0795692    2.0031964    1.4619500 
 O    1.2983188    0.4095628   -1.1607654 
 H    2.2745787    0.6178757   -1.0084995 
 H    0.8835623   -2.7034499    1.6547906 
9
 PE=      -1151.912872 H, t=   2080.00 au
TI   -0.1024823    0.2303720   -0.1567071 
 O    0.4848666   -1.8603811    1.5356938 
 O   -1.3798873   -0.3421751   -1.1373542 
 H   -2.2256634   -0.7341208   -1.3783651 
 O   -0.1702593    1.1582807    1.1858928 
 H    0.0385497    2.0145456    1.4962231 
 O    1.3099322    0.4080485   -1.1640452 
 H    2.2709130    0.6429097   -1.0254102 
 H    0.9029499   -2.7721364    1.6848846 
9
 PE=      -1151.908276 H, t=   2120.00 au
TI   -0.1060103    0.2331154   -0.1566968 
 O    0.4851154   -1.8623670    1.5385648 
 O   -1.3864242   -0.3396204   -1.1376163 
 H   -2.1910668   -0.7768927   -1.3613929 
 O   -0.1660781    1.1537226    1.1824109 
 H   -0.0014584    2.0387686    1.5392240 
 O    1.3234821    0.4068526   -1.1675394 
 H    2.2511601    0.6653202   -1.0455796 
 H    0.9141370   -2.8240648    1.7139095 
9
 PE=      -1151.904041 H, t=   2160.00 au
TI   -0.1091768    0.2350966   -0.1573333 
 O    0.4861855   -1.8660521    1.5414307 
 O   -1.3937061   -0.3373665   -1.1383484 
 H   -2.1645003   -0.8216011   -1.3467847 
 O   -0.1620408    1.1517104    1.1818302 
 H   -0.0433092    2.0595573    1.5842870 
 O    1.3378444    0.4058095   -1.1711517 
 H    2.2264485    0.6871977   -1.0669310 
 H    0.9111514   -2.8449596    1.7385234 
9
 PE=      -1151.906405 H, t=   2200.00 au
TI   -0.1119009    0.2363230   -0.1586631 
 O    0.4881396   -1.8716253    1.5443539 
 O   -1.4014112   -0.3352108   -1.1394292 
 H   -2.1501560   -0.8711270   -1.3357854 
 O   -0.1580993    1.1529529    1.1844626 
 H   -0.0880057    2.0651030    1.6257306 
 O    1.3517431    0.4045939   -1.1748522 
 H    2.2126140    0.7132076   -1.0873307 
 H    0.8928995   -2.8314505    1.7573849 
9
 PE=      -1151.916057 H, t=   2240.00 au
TI   -0.1141214    0.2368347   -0.1606787 
 O    0.4908332   -1.8787959    1.5472903 
 O   -1.4096979   -0.3332430   -1.1408672 
 H   -2.1442777   -0.9235783   -1.3274357 
 O   -0.1543069    1.1576054    1.1903165 
 H   -0.1347984    2.0507603    1.6603883 
 O    1.3642544    0.4029142   -1.1785765 
 H    2.2203536    0.7474887   -1.1055944 
 H    0.8615872   -2.7878565    1.7708367 
9
 PE=      -1151.921888 H, t=   2280.00 au
TI   -0.1158149    0.2367037   -0.1633394 
 O    0.4938858   -1.8866779    1.5500372 
 O   -1.4190282   -0.3317701   -1.1427401 
 H   -2.1389236   -0.9736576   -1.3196672 
 O   -0.1507211    1.1653506    1.1991262 
 H   -0.1826710    2.0184797    1.6884783 
 O    1.3755495    0.4007912   -1.1822181 
 H    2.2450861    0.7892667   -1.1222635 
 H    0.8232920   -2.7285616    1.7821840 
9
 PE=      -1151.916379 H, t=   2320.00 au
TI   -0.1169770    0.2360137   -0.1665897 
 O    0.4965835   -1.8934495    1.5520692 
 O   -1.4298154   -0.3310957   -1.1451031 
 H   -2.1274508   -1.0161693   -1.3108045 
 O   -0.1473546    1.1754787    1.2103719 
 H   -0.2312676    1.9762423    1.7140508 
 O    1.3865167    0.3985436   -1.1856740 
 H    2.2721577    0.8330500   -1.1384707 
 H    0.7894584   -2.6831084    1.8000172 
9
 PE=      -1151.917994 H, t=   2360.00 au
TI   -0.1175899    0.2348610   -0.1703162 
 O    0.4981291   -1.8968729    1.5525742 
 O   -1.4420913   -0.3313828   -1.1479141 
 H   -2.1069726   -1.0476701   -1.3002691 
 O   -0.1441743    1.1868157    1.2231044 
 H   -0.2810879    1.9375352    1.7447224 
 O    1.3978159    0.3965603   -1.1888330 
 H    2.2878579    0.8721102   -1.1546000 
 H    0.7727134   -2.6867577    1.8366737 
9
 PE=      -1151.928464 H, t=   2400.00 au
TI   -0.1176414    0.2333784   -0.1743201 
 O    0.4986628   -1.8971424    1.5514334 
 O   -1.4553728   -0.3325453   -1.1510060 
 H   -2.0790418   -1.0679030   -1.2886890 
 O   -0.1411015    1.1980510    1.2360667 
 H   -0.3333055    1.9147276    1.7877976 
 O    1.4095025    0.3951255   -1.1915728 
 H    2.2846598    0.9012402   -1.1701579 
 H    0.7707178   -2.7352280    1.8927722 
9
 PE=      -1151.944299 H, t=   2440.00 au
TI   -0.1171620    0.2316649   -0.1785456 
 O    0.4990531   -1.8967108    1.5494411 
 O   -1.4694245   -0.3342491   -1.1542736 
 H   -2.0478584   -1.0820099   -1.2770678 
 O   -0.1380150    1.2090930    1.2489994 
 H   -0.3896639    1.9062324    1.8438084 
 O    1.4216584    0.3942352   -1.1939282 
 H    2.2626737    0.9201279   -1.1850218 
 H    0.7700003   -2.7910277    1.9564018 
9
 PE=      -1151.936107 H, t=   2480.00 au
TI   -0.1160290    0.2292962   -0.1827672 
 O    0.4993320   -1.8960477    1.5476190 
 O   -1.4834958   -0.3356035   -1.1574149 
 H   -2.0196018   -1.0991406   -1.2661490 
 O   -0.1350109    1.2205122    1.2618061 
 H   -0.4487019    1.9006590    1.9051014 
 O    1.4334799    0.3938119   -1.1958547 
 H    2.2290158    0.9319958   -1.1981372 
 H    0.7641977   -2.8311909    2.0040052 
9
 PE=      -1151.926243 H, t=   2520.00 au
TI   -0.1141431    0.2260741   -0.1873937 
 O    0.4997652   -1.8958332    1.5461396 
 O   -1.4987824   -0.3363042   -1.1606411 
 H   -1.9953364   -1.1278077   -1.2555948 
 O   -0.1320411    1.2341156    1.2763260 
 H   -0.5121821    1.8853822    1.9672795 
 O    1.4455029    0.3933312   -1.1975385 
 H    2.1915254    0.9454752   -1.2108856 
 H    0.7490725   -2.8481864    2.0348227 
9
 PE=      -1151.924406 H, t=   2560.00 au
TI   -0.1116812    0.2223550   -0.1918389 
 O    0.5003909   -1.8963917    1.5453647 
 O   -1.5134702   -0.3360958   -1.1634930 
 H   -1.9780994   -1.1667115   -1.2465918 
 O   -0.1297680    1.2487574    1.2912656 
 H   -0.5678652    1.8535137    2.0137002 
 O    1.4553455    0.3921625   -1.1986975 
 H    2.1685803    0.9696916   -1.2220026 
 H    0.7243681   -2.8331936    2.0405869 
9
 PE=      -1151.931504 H, t=   2600.00 au
TI   -0.1087179    0.2182457   -0.1959661 
 O    0.5011617   -1.8975479    1.5452195 
 O   -1.5275187   -0.3353700   -1.1659125 
 H   -1.9634793   -1.2085139   -1.2383192 
 O   -0.1283955    1.2641353    1.3063948 
 H   -0.6119094    1.8037991    2.0395053 
 O    1.4625326    0.3900024   -1.1992706 
 H    2.1652575    1.0091502   -1.2317572 
 H    0.6911800   -2.7888278    2.0220573 
