23
Energy =
C    -0.6037154    4.1232690    6.2617881 
H    -1.5361629    3.6066263    6.0096061 
C     0.7897861    5.3946087    8.0841167 
H     0.8355471    5.7708663    9.1116448 
B     0.6136617    4.2607493    5.0532349 
H     0.4059037    3.7863766    3.9662112 
B     1.4218477    5.7761293    5.4469586 
B     2.1413128    5.6544865    7.0509344 
H     3.0976023    6.2424183    7.4863470 
B     0.6108008    6.5454838    6.8114711 
H     0.5274954    7.7142787    7.0870252 
B     0.8116914    3.1662973    6.4537796 
H     0.7385704    1.9733031    6.3199932 
B    -0.3352337    5.6824893    5.5747465 
H    -1.1773196    6.1591827    4.8588574 
B     2.1544761    4.2427079    5.9567808 
H     3.1724127    3.7904323    5.4937696 
B     1.7572239    4.0292009    7.6903465 
H     2.4387082    3.5245188    8.5431633 
B    -0.0047105    3.9171053    7.8348730 
H    -0.5909691    3.3235961    8.6972689 
B    -0.7142873    5.4666440    7.2967292 
H    -1.7305918    5.8140795    7.8317537 
