30
	Energy:     289.0934215
C          1.19851        3.04800        4.66629
C          0.35861        4.06137        4.62039
C          2.52187        3.25084        4.53687
C          2.97568        4.47488        4.36308
C          2.12755        5.51770        4.31455
C          0.83383        5.30702        4.44245
C          3.44797        2.32048        4.56649
C          2.91286        0.98432        4.75940
N          1.50602        0.79454        4.89407
C          0.64234        1.88712        4.84124
C         -0.91106        2.15623        4.93627
C         -0.90543        3.73410        4.75895
C         -1.80270        4.87458        4.70342
N         -1.27504        6.18569        4.51391
C          0.09918        6.37669        4.38174
C          1.09762        7.58135        4.16621
C          2.46548        6.77532        4.14631
C          4.82147        3.09232        4.36925
C          4.26650        4.56609        4.24879
N          4.77704        5.84967        4.06373
C          3.89786        6.97100        4.00890
H          4.29717        7.96544        3.86522
H          5.48423        2.97693        5.25213
H          5.33812        2.77380        3.43991
H          3.58014        0.13460        4.80084
H         -2.86929        4.72985        4.80560
H         -1.46283        1.65563        4.11347
H         -1.31678        1.85876        5.92570
H          0.91361        8.09574        3.19998
H          1.05969        8.29892        5.01220
