10
 PE=       -688.871458 H, t=   6600.00 au
CL    0.2031193    0.0876262    1.5995071
 O    1.2585537    0.5505811   -1.3280026
 O   -0.3481058   -1.6334494   -0.9294114
 O   -1.3299831    0.9166371   -1.0096973
 H    0.4443865    1.0772351   -1.3816828
 H   -0.9917102    0.7035959   -0.1036379
 H    0.4729363   -1.1234799   -1.1772422
 H   -1.3278989   -0.0347701   -1.2139822
 H   -0.3139976   -1.5370609    0.0872300
 H    1.2770952    0.4777401   -0.3658050
