8
	Energy:       8.3216267
B         -5.58242        1.20235       -0.12978
H         -4.49780        1.66975        0.46160
H         -5.33381        0.51313       -1.08489
H         -6.28664        0.57224        0.61594
B         -5.01767        2.83776        0.12978
H         -4.31345        3.46788       -0.61593
H         -6.10229        2.37035       -0.46161
H         -5.26629        3.52697        1.08489
