10
Energy =
Cl    0.0302442   -0.0467254    1.5412547 
O     1.6051962    0.6011586   -1.1503762 
O    -0.3004860   -1.6816167   -1.1719950 
O    -1.3243932    1.1089071   -1.0996608 
H     0.7902239    1.0520754   -1.4051288 
H    -1.0583533    0.9985554   -0.1672779 
H     0.4872896   -1.1963319   -1.4482317 
H    -1.3081741    0.1895158   -1.3944035 
H    -0.3351427   -1.4364643   -0.2280507 
H     1.4127154    0.4076260   -0.2134702 
