9
 PE=      -1151.856254 H, t=      0.00 au
TI   -0.0153466   -0.0422299    0.0189844 
 O    0.5927965   -1.3537405    0.9395614 
 O   -1.5255657   -0.4412486   -0.9299962 
 H   -2.3466496   -0.1693874   -0.9584864 
 O   -0.3840881    1.4415592    0.8416340 
 H   -0.4702920    2.4175409    0.8897218 
 O    1.4537533    0.4452731   -0.8906774 
 H    1.2811305    0.1714557   -1.9663277 
 H    0.0921644   -1.8706100    1.7595619 
9
 PE=      -1151.879971 H, t=     40.00 au
TI   -0.0185748   -0.0399479    0.0181342 
 O    0.5914438   -1.3560985    0.9419003 
 O   -1.5180025   -0.4449357   -0.9296561 
 H   -2.3818864   -0.1307279   -0.9516943 
 O   -0.3858006    1.4395670    0.8432850 
 H   -0.4569264    2.4305296    0.9048856 
 O    1.4561598    0.4404138   -0.8972192 
 H    1.3014516    0.2089830   -1.9170144 
 H    0.1375285   -1.8635240    1.7638043 
9
 PE=      -1151.896289 H, t=     80.00 au
TI   -0.0225635   -0.0379005    0.0173088 
 O    0.5895454   -1.3612319    0.9469888 
 O   -1.5096130   -0.4492918   -0.9298337 
 H   -2.4379253   -0.0853182   -0.9442828 
 O   -0.3877105    1.4403237    0.8460116 
 H   -0.4443552    2.4296167    0.9174670 
 O    1.4604888    0.4359025   -0.9070879 
 H    1.3294598    0.2549029   -1.8412422 
 H    0.2011080   -1.8410118    1.7426791 
9
 PE=      -1151.882972 H, t=    120.00 au
TI   -0.0273816   -0.0360322    0.0165190 
 O    0.5874548   -1.3686845    0.9541225 
 O   -1.5024460   -0.4536375   -0.9306416 
 H   -2.4807743   -0.0449964   -0.9348002 
 O   -0.3898349    1.4437622    0.8498520 
 H   -0.4325591    2.4154023    0.9278570 
 O    1.4670884    0.4320400   -0.9184764 
 H    1.3615468    0.3031376   -1.7690741 
 H    0.2774231   -1.8101323    1.7075703 
9
 PE=      -1151.868928 H, t=    160.00 au
TI   -0.0328506   -0.0344068    0.0158363 
 O    0.5859774   -1.3770168    0.9611521 
 O   -1.4978072   -0.4574065   -0.9321188 
 H   -2.4922060   -0.0182813   -0.9231126 
 O   -0.3920528    1.4493418    0.8546097 
 H   -0.4225020    2.3947029    0.9364110 
 O    1.4761543    0.4294954   -0.9270857 
 H    1.3898236    0.3429222   -1.7650564 
 H    0.3515339   -1.7892674    1.6887569 
9
 PE=      -1151.895535 H, t=    200.00 au
TI   -0.0388028   -0.0330675    0.0153330 
 O    0.5857414   -1.3845570    0.9654648 
 O   -1.4960834   -0.4603463   -0.9342272 
 H   -2.4674107   -0.0084983   -0.9097257 
 O   -0.3942393    1.4560503    0.8600016 
 H   -0.4149718    2.3800015    0.9442860 
 O    1.4874234    0.4282335   -0.9313819 
 H    1.4128814    0.3740751   -1.8492040 
 H    0.4112248   -1.7992526    1.7231822 
9
 PE=      -1151.914094 H, t=    240.00 au
TI   -0.0448867   -0.0320644    0.0150833 
 O    0.5863089   -1.3911445    0.9672742 
 O   -1.4971476   -0.4623623   -0.9368303 
 H   -2.4113416   -0.0153290   -0.8959806 
 O   -0.3962444    1.4626490    0.8655798 
 H   -0.4104512    2.3835022    0.9524183 
 O    1.4998285    0.4278199   -0.9350014 
 H    1.4356031    0.4019746   -1.9543709 
 H    0.4598353   -1.8331015    1.7998474 
9
 PE=      -1151.906666 H, t=    280.00 au
TI   -0.0517386   -0.0312325    0.0150769 
 O    0.5871096   -1.3988749    0.9693174 
 O   -1.5002123   -0.4640743   -0.9401908 
 H   -2.3320178   -0.0334082   -0.8808284 
 O   -0.3983136    1.4696649    0.8719071 
 H   -0.4079443    2.4060137    0.9619773 
 O    1.5144657    0.4279992   -0.9411493 
 H    1.4631778    0.4315599   -2.0463561 
 H    0.5124877   -1.8709871    1.8854854 
9
 PE=      -1151.886321 H, t=    320.00 au
TI   -0.0588323   -0.0306174    0.0153584 
 O    0.5879158   -1.4080485    0.9730902 
 O   -1.5032789   -0.4662669   -0.9441847 
 H   -2.2644660   -0.0472992   -0.8642782 
 O   -0.4003138    1.4770396    0.8785772 
 H   -0.4073542    2.4377948    0.9714402 
 O    1.5302485    0.4287759   -0.9506394 
 H    1.4940315    0.4599044   -2.0985125 
 H    0.5677008   -1.8954224    1.9465200 
9
 PE=      -1151.886558 H, t=    360.00 au
TI   -0.0660575   -0.0302078    0.0159565 
 O    0.5887468   -1.4187916    0.9791302 
 O   -1.5037639   -0.4703177   -0.9490364 
 H   -2.2499696   -0.0346761   -0.8423973 
 O   -0.4022386    1.4853594    0.8855795 
 H   -0.4083998    2.4662102    0.9794621 
 O    1.5469853    0.4301514   -0.9636603 
 H    1.5273700    0.4856765   -2.1053237 
 H    0.6236640   -1.9007639    1.9716773 
9
 PE=      -1151.911762 H, t=    400.00 au
TI   -0.0731861   -0.0300046    0.0168939 
 O    0.5896479   -1.4307387    0.9873150 
 O   -1.5016187   -0.4762467   -0.9547365 
 H   -2.2896394    0.0060593   -0.8138930 
 O   -0.4040397    1.4948253    0.8927409 
 H   -0.4108822    2.4819793    0.9849420 
 O    1.5642269    0.4321083   -0.9798047 
 H    1.5616674    0.5072658   -2.0671405 
 H    0.6768356   -1.8860853    1.9581105 
9
 PE=      -1151.930761 H, t=    440.00 au
TI   -0.0802845   -0.0299893    0.0182227 
 O    0.5906696   -1.4437426    0.9973512 
 O   -1.4993497   -0.4826978   -0.9610375 
 H   -2.3434264    0.0525047   -0.7833667 
 O   -0.4057393    1.5055663    0.9000992 
 H   -0.4146857    2.4832603    0.9878017 
 O    1.5821830    0.4346548   -0.9987221 
 H    1.5968589    0.5246799   -1.9919846 
 H    0.7262901   -1.8540534    1.9106096 
9
 PE=      -1151.920279 H, t=    480.00 au
TI   -0.0874451   -0.0301488    0.0200140 
 O    0.5917340   -1.4574049    1.0083412 
 O   -1.4987123   -0.4886593   -0.9676944 
 H   -2.3829747    0.0875804   -0.7555517 
 O   -0.4073510    1.5173701    0.9076547 
 H   -0.4198163    2.4740334    0.9885918 
 O    1.6010753    0.4377027   -1.0191286 
 H    1.6336728    0.5397613   -1.9036251 
 H    0.7731306   -1.8116574    1.8437256 
9
 PE=      -1151.889824 H, t=    520.00 au
TI   -0.0945334   -0.0304709    0.0222924 
 O    0.5923380   -1.4703942    1.0177951 
 O   -1.5004459   -0.4935063   -0.9743674 
 H   -2.3949992    0.1023641   -0.7340752 
 O   -0.4088204    1.5293022    0.9151245 
 H   -0.4262732    2.4638431    0.9882834 
 O    1.6203812    0.4407626   -1.0370048 
 H    1.6739993    0.5588275   -1.8619022 
 H    0.8229410   -1.7748656    1.7936029 
9
 PE=      -1151.910506 H, t=    560.00 au
TI   -0.1014887   -0.0309386    0.0250778 
 O    0.5915465   -1.4815225    1.0229596 
 O   -1.5046701   -0.4970386   -0.9808604 
 H   -2.3762836    0.0942323   -0.7207568 
 O   -0.4101070    1.5403915    0.9223094 
 H   -0.4341987    2.4645420    0.9879127 
 O    1.6396044    0.4432301   -1.0489320 
 H    1.7225654    0.5906185   -1.9191903 
 H    0.8890186   -1.7594773    1.8019361 
9
 PE=      -1151.931910 H, t=    600.00 au
TI   -0.1078519   -0.0315018    0.0282096 
 O    0.5893262   -1.4904200    1.0241759 
 O   -1.5109130   -0.4991051   -0.9866923 
 H   -2.3308639    0.0649994   -0.7169320 
 O   -0.4111120    1.5494125    0.9286774 
 H   -0.4432517    2.4824220    0.9878454 
 O    1.6576204    0.4452846   -1.0572132 
 H    1.7742334    0.6274563   -2.0228307 
 H    0.9676925   -1.7599653    1.8566258 
9
 PE=      -1151.918775 H, t=    640.00 au
TI   -0.1142392   -0.0321899    0.0319663 
 O    0.5865395   -1.4990307    1.0244847 
 O   -1.5189802   -0.5003845   -0.9925371 
 H   -2.2667127    0.0196606   -0.7198546 
 O   -0.4119598    1.5575691    0.9348909 
 H   -0.4540778    2.5131081    0.9874422 
 O    1.6765880    0.4477657   -1.0665086 
 H    1.8273698    0.6624432   -2.1213569 
 H    1.0494348   -1.7594680    1.9167406 
9
 PE=      -1151.889359 H, t=    680.00 au
TI   -0.1203248   -0.0329613    0.0361909 
 O    0.5841444   -1.5074371    1.0255435 
 O   -1.5269404   -0.5018134   -0.9985401 
 H   -2.2119344   -0.0234791   -0.7222387 
 O   -0.4126423    1.5650963    0.9406888 
 H   -0.4657151    2.5437816    0.9857193 
 O    1.6959018    0.4509131   -1.0781019 
 H    1.8750606    0.6882010   -2.1827538 
 H    1.1164333   -1.7494263    1.9519593 
9
 PE=      -1151.880726 H, t=    720.00 au
TI   -0.1260132   -0.0337950    0.0408218 
 O    0.5825801   -1.5156261    1.0279523 
 O   -1.5323084   -0.5049198   -1.0054460 
 H   -2.2047275   -0.0387838   -0.7101278 
 O   -0.4131957    1.5724663    0.9460173 
 H   -0.4773579    2.5635660    0.9820028 
 O    1.7154230    0.4548088   -1.0923613 
 H    1.9144820    0.7022191   -2.1977637 
 H    1.1607281   -1.7278289    1.9516497 
9
 PE=      -1151.903226 H, t=    760.00 au
TI   -0.1311955   -0.0346659    0.0457510 
 O    0.5819957   -1.5233512    1.0317206 
 O   -1.5344957   -0.5098714   -1.0132962 
 H   -2.2517954   -0.0218808   -0.6798443 
 O   -0.4136454    1.5797678    0.9507653 
 H   -0.4882404    2.5671578    0.9761605 
 O    1.7347869    0.4593851   -1.1090085 
 H    1.9440863    0.7038610   -2.1658908 
 H    1.1791158   -1.6959012    1.9147588 
9
 PE=      -1151.923303 H, t=    800.00 au
TI   -0.1359533   -0.0355757    0.0509916 
 O    0.5822316   -1.5304996    1.0365173 
 O   -1.5356418   -0.5151804   -1.0211715 
 H   -2.3178612    0.0033784   -0.6455087 
 O   -0.4140079    1.5869136    0.9549539 
 H   -0.4982795    2.5563070    0.9683538 
 O    1.7540903    0.4645766   -1.1277227 
 H    1.9650709    0.6946569   -2.0942878 
 H    1.1741327   -1.6559658    1.8470162 
9
 PE=      -1151.913654 H, t=    840.00 au
TI   -0.1405170   -0.0365552    0.0567183 
 O    0.5826710   -1.5370657    1.0415521 
 O   -1.5375062   -0.5198449   -1.0284881 
 H   -2.3757612    0.0190940   -0.6185296 
 O   -0.4142659    1.5936575    0.9587072 
 H   -0.5082588    2.5381112    0.9586353 
 O    1.7737827    0.4702608   -1.1478815 
 H    1.9826336    0.6792231   -2.0016129 
 H    1.1554630   -1.6105127    1.7615606 
9
 PE=      -1151.875396 H, t=    880.00 au
TI   -0.1448377   -0.0375826    0.0628069 
 O    0.5817112   -1.5425672    1.0446579 
 O   -1.5408209   -0.5232158   -1.0346101 
 H   -2.4097530    0.0164724   -0.6058097 
 O   -0.4143341    1.5990563    0.9619037 
 H   -0.5190136    2.5244135    0.9473400 
 O    1.7926183    0.4755023   -1.1657575 
 H    2.0097069    0.6708104   -1.9426822 
 H    1.1484173   -1.5650189    1.6927526 
9
 PE=      -1151.893534 H, t=    920.00 au
TI   -0.1489618   -0.0386565    0.0692385 
 O    0.5772899   -1.5469351    1.0435873 
 O   -1.5457848   -0.5251330   -1.0393279 
 H   -2.4147990   -0.0066964   -0.6095182 
 O   -0.4141309    1.6024320    0.9645427 
 H   -0.5316999    2.5251596    0.9342837 
 O    1.8093668    0.4792713   -1.1773808 
 H    2.0659654    0.6857227   -1.9808600 
 H    1.1857713   -1.5201203    1.6765424 
9
 PE=      -1151.920307 H, t=    960.00 au
TI   -0.1525427   -0.0396807    0.0753852 
 O    0.5703176   -1.5499553    1.0392689 
 O   -1.5518238   -0.5254703   -1.0421565 
 H   -2.3910782   -0.0470411   -0.6291008 
 O   -0.4136640    1.6034200    0.9664060 
 H   -0.5452987    2.5407811    0.9204065 
 O    1.8229925    0.4817795   -1.1840406 
 H    2.1381643    0.7136394   -2.0751229 
 H    1.2564541   -1.4768400    1.7017444 
9
 PE=      -1151.909537 H, t=   1000.00 au
TI   -0.1561617   -0.0408124    0.0820956 
 O    0.5622944   -1.5520961    1.0337481 
 O   -1.5591599   -0.5247090   -1.0438213 
 H   -2.3456602   -0.1035707   -0.6625596 
 O   -0.4129761    1.6029826    0.9678373 
 H   -0.5603377    2.5626271    0.9040608 
 O    1.8370148    0.4845067   -1.1910999 
 H    2.2142579    0.7411870   -2.1703941 
 H    1.3322662   -1.4303776    1.7313234 
9
 PE=      -1151.880960 H, t=   1040.00 au
TI   -0.1596626   -0.0420055    0.0889698 
 O    0.5552019   -1.5529763    1.0287251 
 O   -1.5659851   -0.5235814   -1.0447326 
 H   -2.3024708   -0.1614264   -0.6987883 
 O   -0.4122118    1.6018691    0.9687098 
 H   -0.5741044    2.5774281    0.8869154 
 O    1.8514741    0.4878021   -1.2001055 
 H    2.2777491    0.7589474   -2.2307242 
 H    1.3849888   -1.3869412    1.7416454 
9
 PE=      -1151.868881 H, t=   1080.00 au
TI   -0.1630804   -0.0432605    0.0959070 
 O    0.5497725   -1.5524170    1.0247732 
 O   -1.5696581   -0.5232780   -1.0459400 
 H   -2.3019260   -0.2007581   -0.7198488 
 O   -0.4114449    1.6006085    0.9689704 
 H   -0.5851636    2.5770401    0.8702376 
 O    1.8666273    0.4917712   -1.2115520 
 H    2.3229394    0.7646085   -2.2467137 
 H    1.4045177   -1.3499324    1.7251517 
9
 PE=      -1151.892600 H, t=   1120.00 au
TI   -0.1664189   -0.0445555    0.1027701 
 O    0.5462347   -1.5503402    1.0220266 
 O   -1.5688490   -0.5242011   -1.0478693 
 H   -2.3632605   -0.2144825   -0.7179285 
 O   -0.4106894    1.5993206    0.9685991 
 H   -0.5931183    2.5600987    0.8549411 
 O    1.8823886    0.4963433   -1.2252910 
 H    2.3475665    0.7581870   -2.2179909 
 H    1.3889722   -1.3217487    1.6818568 
9
 PE=      -1151.917814 H, t=   1160.00 au
TI   -0.1696811   -0.0458637    0.1094495 
 O    0.5443883   -1.5468031    1.0202825 
 O   -1.5657771   -0.5253284   -1.0495232 
 H   -2.4498698   -0.2188172   -0.7084775 
 O   -0.4099008    1.5977339    0.9676570 
 H   -0.5987503    2.5320851    0.8409621 
 O    1.8985138    0.5013676   -1.2408400 
 H    2.3527827    0.7413051   -2.1503727 
 H    1.3430956   -1.3031670    1.6170490 
9
 PE=      -1151.915955 H, t=   1200.00 au
TI   -0.1731377   -0.0472672    0.1164071 
 O    0.5432814   -1.5417681    1.0187569 
 O   -1.5626056   -0.5259054   -1.0501493 
 H   -2.5296773   -0.2278456   -0.7049100 
 O   -0.4089079    1.5951351    0.9661979 
 H   -0.6044377    2.5014634    0.8260985 
 O    1.9157521    0.5069419   -1.2583721 
 H    2.3461052    0.7170246   -2.0546529 
 H    1.2773791   -1.2905293    1.5375929 
9
 PE=      -1151.875672 H, t=   1240.00 au
TI   -0.1766859   -0.0487015    0.1233464 
 O    0.5410391   -1.5359739    1.0161004 
 O   -1.5606884   -0.5255589   -1.0493018 
 H   -2.5790078   -0.2468087   -0.7135031 
 O   -0.4075882    1.5908413    0.9644065 
 H   -0.6125507    2.4816382    0.8090506 
 O    1.9320680    0.5121641   -1.2747162 
 H    2.3492990    0.6970464   -1.9742972 
 H    1.2254737   -1.2758111    1.4696895 
9
 PE=      -1151.882996 H, t=   1280.00 au
TI   -0.1803795   -0.0501670    0.1302859 
 O    0.5349457   -1.5304099    1.0105448 
 O   -1.5604607   -0.5242326   -1.0468877 
 H   -2.5906407   -0.2767428   -0.7355109 
 O   -0.4058489    1.5844706    0.9623836 
 H   -0.6246730    2.4785394    0.7884187 
 O    1.9450197    0.5159539   -1.2859207 
 H    2.4030910    0.6988424   -1.9736967 
 H    1.2308787   -1.2433329    1.4417755 
9
 PE=      -1151.920638 H, t=   1320.00 au
TI   -0.1839432   -0.0515339    0.1365987 
 O    0.5257623   -1.5256073    1.0028917 
 O   -1.5619714   -0.5221000   -1.0431454 
 H   -2.5628922   -0.3140571   -0.7682586 
 O   -0.4039103    1.5769410    0.9603029 
 H   -0.6387719    2.4872049    0.7666578 
 O    1.9536788    0.5181329   -1.2917865 
 H    2.5008306    0.7198166   -2.0413183 
 H    1.2903750   -1.1958550    1.4521236 
9
 PE=      -1151.916786 H, t=   1360.00 au
TI   -0.1877301   -0.0529246    0.1428242 
 O    0.5157642   -1.5200822    0.9944767 
 O   -1.5647271   -0.5192049   -1.0380176 
 H   -2.5041636   -0.3586378   -0.8109425 
 O   -0.4018011    1.5685039    0.9579069 
 H   -0.6531608    2.4958936    0.7443591 
 O    1.9618642    0.5200282   -1.2972044 
 H    2.6047170    0.7439082   -2.1146371 
 H    1.3611359   -1.1477824    1.4707852 
9
 PE=      -1151.888285 H, t=   1400.00 au
TI   -0.1918048   -0.0543482    0.1489504 
 O    0.5067886   -1.5131074    0.9864072 
 O   -1.5672457   -0.5158241   -1.0318227 
 H   -2.4375903   -0.4058492   -0.8578015 
 O   -0.3996770    1.5598252    0.9550875 
 H   -0.6652683    2.4943247    0.7238974 
 O    1.9712669    0.5221508   -1.3041729 
 H    2.6902492    0.7630976   -2.1630365 
 H    1.4142605   -1.1108492    1.4804996 
9
 PE=      -1151.870166 H, t=   1440.00 au
TI   -0.1960567   -0.0557485    0.1547001 
 O    0.4999959   -1.5046825    0.9794854 
 O   -1.5664007   -0.5124490   -1.0253357 
 H   -2.4131990   -0.4478920   -0.8979017 
 O   -0.3977154    1.5516160    0.9519120 
 H   -0.6731252    2.4772534    0.7076407 
 O    1.9822106    0.5245577   -1.3130708 
 H    2.7442503    0.7742020   -2.1748502 
 H    1.4353385   -1.0914961    1.4739808 
9
 PE=      -1151.889531 H, t=   1480.00 au
TI   -0.2004622   -0.0570993    0.1599618 
 O    0.4956961   -1.4949504    0.9739553 
 O   -1.5603211   -0.5091352   -1.0188009 
 H   -2.4610002   -0.4841002   -0.9283084 
 O   -0.3959390    1.5439903    0.9484912 
 H   -0.6768668    2.4462151    0.6958523 
 O    1.9947483    0.5272036   -1.3238730 
 H    2.7635665    0.7770446   -2.1490093 
 H    1.4214633   -1.0909327    1.4501054 
9
 PE=      -1151.914695 H, t=   1520.00 au
TI   -0.2049391   -0.0583563    0.1645753 
 O    0.4938838   -1.4843621    0.9699164 
 O   -1.5517146   -0.5056967   -1.0119741 
 H   -2.5395312   -0.5180976   -0.9554097 
 O   -0.3942802    1.5368051    0.9450876 
 H   -0.6784755    2.4092818    0.6872309 
 O    2.0085151    0.5299406   -1.3361584 
 H    2.7491257    0.7726482   -2.0891952 
 H    1.3761005   -1.1079089    1.4115547 
9
 PE=      -1151.922384 H, t=   1560.00 au
TI   -0.2098814   -0.0596183    0.1689290 
 O    0.4937736   -1.4724340    0.9667033 
 O   -1.5428550   -0.5018159   -1.0041265 
 H   -2.6087328   -0.5535201   -0.9851200 
 O   -0.3924043    1.5288737    0.9416663 
 H   -0.6816497    2.3746355    0.6780583 
 O    2.0242152    0.5327877   -1.3504488 
 H    2.7077787    0.7638629   -1.9995750 
 H    1.3068272   -1.1393165    1.3614971 
