10
	Energy:      -1.0095127
Cl        -0.21473       -0.45210        1.06083
O         -2.23875        2.13424       -0.40566
H         -3.06499        2.67314       -0.31949
H         -2.55986        1.20347       -0.51119
O          1.85412        2.07488       -0.56365
H          1.67027        2.15245        0.40629
O          0.88713       -3.57079       -0.37098
H          1.02597       -2.80852       -0.98750
H          1.33040       -3.29350        0.47013
H          2.43465        1.27657       -0.64296
