10
 PE=       -688.876774 H, t=  59120.00 au
CL    0.2393349    0.0777917    1.8771545
 O    1.4110491    0.8363268   -0.8249573
 O   -0.0832972   -1.5884974   -0.9518846
 O   -1.4263993    0.9147492   -0.5742923
 H    1.1563346   -0.0282561   -1.1860242
 H   -0.5443253    1.2555445   -0.8048835
 H    0.1697782   -1.6500657   -0.0332173
 H   -1.3163491    0.8359502    0.3979010
 H   -0.7352396   -0.8343805   -0.8968654
 H    1.1972917    0.7152890    0.1180422
