23
Energy =
C    -0.6474362   -0.2672454   -1.3026001 
H    -1.1630424   -0.5423791   -2.2121925 
C    -0.6474362   -0.2672454    1.3026001 
H    -1.1630424   -0.5423791    2.2121925 
B     0.8609539    0.5328767   -1.4303724 
H     1.2957882    0.7620631   -2.5054179 
B     0.9118815    1.5445568    0.0000000 
B     0.8609539    0.5328767    1.4303724 
H     1.2957882    0.7620631    2.5054179 
B    -0.5964332    1.3959632    0.8849488 
H    -1.1308881    2.1834464    1.5852893 
B     0.7508300   -1.1586725   -0.8847025 
H     1.1051935   -2.0431253   -1.5822592 
B    -0.5964332    1.3959632   -0.8849488 
H    -1.1308881    2.1834464   -1.5852893 
B     1.7717083    0.0027592    0.0000000 
H     2.9511124   -0.1006603    0.0000000 
B     0.7508300   -1.1586725    0.8847025 
H     1.1051935   -2.0431253    1.5822592 
B    -0.7637317   -1.3337772    0.0000000 
H    -1.4444075   -2.2956425    0.0000000 
B    -1.5986474    0.2393472    0.0000000 
H    -2.7769185    0.2177175    0.0000000 
