10
 PE=       -688.878199 H, t=  78920.00 au
CL    0.3637837    0.0507166    2.1347845
 O    1.4511073    0.7512014   -0.6479853
 O   -0.1214938   -1.5809672   -0.5948008
 O   -1.3128626    1.0454085   -0.3768519
 H    1.1237394   -0.1548265   -0.8221906
 H   -0.3452659    1.0579349   -0.5464646
 H   -0.0127251   -1.3941665    0.3833757
 H   -1.2883925    0.7915205    0.5742807
 H   -0.8135040   -0.9040222   -0.7739269
 H    1.3007223    0.7828406    0.3370555
