9
 PE=      -1151.899132 H, t=      0.00 au
TI    0.0310953    0.0731503   -0.0345509 
 O    0.4494116   -1.3118919    0.9873391 
 O   -1.2932447   -0.5132268   -0.9687117 
 H   -1.5170695   -0.7608427   -1.8695948 
 O   -0.6078169    1.3600908    1.2155796 
 H   -0.5227008    0.8331510    2.0679255 
 O    1.3674642    0.3608182   -1.1444670 
 H    2.2835931   -0.0869742   -0.9359683 
 H   -0.3852374   -1.8074151    0.9551045 
9
 PE=      -1151.903651 H, t=     40.00 au
TI    0.0287703    0.0758059   -0.0359127 
 O    0.4478080   -1.3132690    0.9872152 
 O   -1.2909611   -0.5146188   -0.9694737 
 H   -1.4929939   -0.7394448   -1.8640400 
 O   -0.6081534    1.3562353    1.2193975 
 H   -0.5063142    0.8645972    2.0787582 
 O    1.3704248    0.3547522   -1.1469577 
 H    2.2760350   -0.0509133   -0.9317440 
 H   -0.3601020   -1.8210859    0.9922043 
9
 PE=      -1151.908239 H, t=     80.00 au
TI    0.0266607    0.0785195   -0.0377405 
 O    0.4466250   -1.3155684    0.9879245 
 O   -1.2900558   -0.5163829   -0.9705522 
 H   -1.4701841   -0.7209200   -1.8668466 
 O   -0.6091012    1.3533374    1.2252168 
 H   -0.4903864    0.9041663    2.0856585 
 O    1.3755197    0.3484168   -1.1497067 
 H    2.2539067   -0.0061116   -0.9324992 
 H   -0.3378788   -1.8418743    1.0328480 
9
 PE=      -1151.910314 H, t=    120.00 au
TI    0.0247907    0.0812452   -0.0400189 
 O    0.4460428   -1.3185524    0.9894036 
 O   -1.2904938   -0.5184746   -0.9717147 
 H   -1.4492440   -0.7060375   -1.8820375 
 O   -0.6106929    1.3516357    1.2326913 
 H   -0.4744310    0.9482510    2.0942855 
 O    1.3818209    0.3422419   -1.1528907 
 H    2.2310948    0.0407356   -0.9351286 
 H   -0.3216563   -1.8716294    1.0771876 
9
 PE=      -1151.911773 H, t=    160.00 au
TI    0.0231923    0.0839147   -0.0427185 
 O    0.4459011   -1.3221859    0.9915846 
 O   -1.2923163   -0.5209300   -0.9731594 
 H   -1.4293620   -0.6940587   -1.9065464 
 O   -0.6129707    1.3513596    1.2413845 
 H   -0.4576792    0.9932386    2.1109607 
 O    1.3879303    0.3367592   -1.1567822 
 H    2.2282857    0.0815797   -0.9345746 
 H   -0.3091667   -1.9082386    1.1248549 
9
 PE=      -1151.916909 H, t=    200.00 au
TI    0.0218996    0.0864436   -0.0457897 
 O    0.4458125   -1.3265955    0.9944308 
 O   -1.2955651   -0.5238087   -0.9753700 
 H   -1.4092098   -0.6835291   -1.9322734 
 O   -0.6159361    1.3525934    1.2509904 
 H   -0.4396899    1.0372197    2.1386807 
 O    1.3928994    0.3322447   -1.1615220 
 H    2.2581816    0.1126273   -0.9273819 
 H   -0.2946014   -1.9462146    1.1742861 
9
 PE=      -1151.921482 H, t=    240.00 au
TI    0.0209342    0.0887550   -0.0491775 
 O    0.4454092   -1.3319233    0.9979375 
 O   -1.3002146   -0.5271381   -0.9787981 
 H   -1.3878932   -0.6732724   -1.9512567 
 O   -0.6195126    1.3552298    1.2615535 
 H   -0.4209951    1.0807508    2.1743570 
 O    1.3972371    0.3285110   -1.1668758 
 H    2.3100741    0.1373023   -0.9159821 
 H   -0.2725072   -1.9796828    1.2232508 
9
 PE=      -1151.922622 H, t=    280.00 au
TI    0.0202923    0.0908177   -0.0528825 
 O    0.4444942   -1.3382727    1.0021420 
 O   -1.3062281   -0.5309392   -0.9836998 
 H   -1.3649806   -0.6627020   -1.9594584 
 O   -0.6236070    1.3591133    1.2735390 
 H   -0.4028132    1.1260984    2.2111460 
 O    1.4022339    0.3252078   -1.1724915 
 H    2.3625888    0.1608840   -0.9057431 
 H   -0.2399600   -2.0052978    1.2704527 
9
 PE=      -1151.923384 H, t=    320.00 au
TI    0.0199844    0.0925620   -0.0568530 
 O    0.4430774   -1.3454773    1.0069684 
 O   -1.3134339   -0.5351233   -0.9899731 
 H   -1.3410124   -0.6521371   -1.9570869 
 O   -0.6280436    1.3640803    1.2872407 
 H   -0.3869958    1.1741593    2.2414274 
 O    1.4087697    0.3222074   -1.1779984 
 H    2.3986971    0.1856550   -0.9009580 
 H   -0.1976808   -2.0220304    1.3145881 
9
 PE=      -1151.926076 H, t=    360.00 au
TI    0.0200115    0.0939201   -0.0610336 
 O    0.4413558   -1.3531496    1.0122356 
 O   -1.3216053   -0.5395502   -0.9971920 
 H   -1.3167696   -0.6424530   -1.9490878 
 O   -0.6326620    1.3700174    1.3027431 
 H   -0.3749624    1.2246000    2.2604139 
 O    1.4171571    0.3195155   -1.1831597 
 H    2.4101546    0.2116719   -0.9036303 
 H   -0.1494972   -2.0321736    1.3557780 
9
 PE=      -1151.930179 H, t=    400.00 au
TI    0.0203617    0.0948389   -0.0653940 
 O    0.4396285   -1.3607822    1.0176891 
 O   -1.3305604   -0.5440852   -1.0047639 
 H   -1.2926125   -0.6346730   -1.9435547 
 O   -0.6373853    1.3768906    1.3199544 
 H   -0.3670897    1.2764870    2.2676740 
 O    1.4272827    0.3171856   -1.1879055 
 H    2.3965883    0.2380134   -0.9137501 
 H   -0.1007922   -2.0408270    1.3960796 
9
 PE=      -1151.933143 H, t=    440.00 au
TI    0.0210159    0.0952701   -0.0699087 
 O    0.4381576   -1.3678634    1.0230372 
 O   -1.3401542   -0.5486129   -1.0121579 
 H   -1.2683691   -0.6295456   -1.9477322 
 O   -0.6422149    1.3846925    1.3385318 
 H   -0.3625522    1.3285767    2.2671127 
 O    1.4385698    0.3153002   -1.1923054 
 H    2.3653878    0.2632488   -0.9292822 
 H   -0.0563280   -2.0534127    1.4383263 
9
 PE=      -1151.931756 H, t=    480.00 au
TI    0.0219505    0.0951695   -0.0745473 
 O    0.4370079   -1.3740973    1.0280794 
 O   -1.3502432   -0.5530553   -1.0192025 
 H   -1.2437648   -0.6271655   -1.9630994 
 O   -0.6472209    1.3933917    1.3578901 
 H   -0.3593408    1.3797943    2.2662114 
 O    1.4498269    0.3139488   -1.1965924 
 H    2.3336893    0.2858125   -0.9455447 
 H   -0.0176926   -2.0719627    1.4838499 
9
 PE=      -1151.928977 H, t=    520.00 au
TI    0.0231412    0.0944999   -0.0792781 
 O    0.4360188   -1.3795311    1.0328201 
 O   -1.3606515   -0.5573730   -1.0261635 
 H   -1.2191264   -0.6270378   -1.9842345 
 O   -0.6525047    1.4029109    1.3773898 
 H   -0.3549490    1.4297519    2.2732327 
 O    1.4594341    0.3131784   -1.2011235 
 H    2.3254746    0.3047833   -0.9559229 
 H    0.0171955   -2.0932828    1.5308030 
9
 PE=      -1151.930364 H, t=    560.00 au
TI    0.0245585    0.0932329   -0.0840440 
 O    0.4349558   -1.3843897    1.0373943 
 O   -1.3711138   -0.5615198   -1.0334578 
 H   -1.1956721   -0.6285135   -2.0027402 
 O   -0.6580759    1.4130932    1.3965578 
 H   -0.3479864    1.4784146    2.2922410 
 O    1.4664453    0.3129634   -1.2060490 
 H    2.3533915    0.3203728   -0.9568260 
 H    0.0515882   -2.1111193    1.5747923 
9
 PE=      -1151.930893 H, t=    600.00 au
TI    0.0261750    0.0913500   -0.0887895 
 O    0.4336552   -1.3888780    1.0419457 
 O   -1.3813672   -0.5654474   -1.0413979 
 H   -1.1748562   -0.6311221   -2.0120487 
 O   -0.6638031    1.4238053    1.4153979 
 H   -0.3394364    1.5255842    2.3199575 
 O    1.4716181    0.3132588   -1.2110751 
 H    2.4032848    0.3330754   -0.9519761 
 H    0.0877111   -2.1200399    1.6115663 
9
 PE=      -1151.927816 H, t=    640.00 au
TI    0.0279858    0.0888170   -0.0935230 
 O    0.4320591   -1.3930897    1.0465633 
 O   -1.3913201   -0.5691475   -1.0501444 
 H   -1.1574643   -0.6347381   -2.0099017 
 O   -0.6695275    1.4351125    1.4344673 
 H   -0.3319122    1.5709135    2.3487674 
 O    1.4764354    0.3140615   -1.2158160 
 H    2.4513700    0.3428875   -0.9476824 
 H    0.1263697   -2.1178298    1.6393607 
9
 PE=      -1151.924652 H, t=    680.00 au
TI    0.0299682    0.0856256   -0.0981934 
 O    0.4302288   -1.3968410    1.0511061 
 O   -1.4008034   -0.5725435   -1.0594799 
 H   -1.1437406   -0.6395389   -1.9983895 
 O   -0.6750169    1.4469796    1.4540626 
 H   -0.3281828    1.6129616    2.3710961 
 O    1.4818576    0.3153813   -1.2199498 
 H    2.4804683    0.3493473   -0.9482354 
 H    0.1662610   -2.1057406    1.6586717 
9
 PE=      -1151.923804 H, t=    720.00 au
TI    0.0320946    0.0817827   -0.1027464 
 O    0.4282961   -1.3997419    1.0552415 
 O   -1.4097117   -0.5755414   -1.0689212 
 H   -1.1328154   -0.6460004   -1.9837106 
 O   -0.6801085    1.4593374    1.4742342 
 H   -0.3298224    1.6504876    2.3829024 
 O    1.4882275    0.3172066   -1.2233126 
 H    2.4832226    0.3521815   -0.9552992 
 H    0.2049583   -2.0885169    1.6730293 
9
 PE=      -1151.924758 H, t=    760.00 au
TI    0.0343473    0.0772866   -0.1071591 
 O    0.4263892   -1.4013234    1.0585441 
 O   -1.4180639   -0.5780620   -1.0779194 
 H   -1.1228182   -0.6548336   -1.9740103 
 O   -0.6847804    1.4721317    1.4948660 
 H   -0.3366773    1.6833614    2.3848953 
 O    1.4954057    0.3195079   -1.2258989 
 H    2.4608750    0.3514922   -0.9684222 
 H    0.2401705   -2.0727051    1.6881286 
9
 PE=      -1151.924662 H, t=    800.00 au
TI    0.0367109    0.0721351   -0.1114194 
 O    0.4245682   -1.4012330    1.0606605 
 O   -1.4258905   -0.5800416   -1.0860757 
 H   -1.1120554   -0.6666842   -1.9753201 
 O   -0.6891277    1.4852546    1.5156029 
 H   -0.3468789    1.7126960    2.3822211 
 O    1.5027301    0.3222353   -1.2278426 
 H    2.4233124    0.3477281   -0.9850316 
 H    0.2707324   -2.0632252    1.7087448 
9
 PE=      -1151.920997 H, t=    840.00 au
TI    0.0391697    0.0663333   -0.1155167 
 O    0.4227961   -1.3994458    1.0615242 
 O   -1.4331232   -0.5814521   -1.0933680 
 H   -1.1005288   -0.6816967   -1.9876528 
 O   -0.6933241    1.4985248    1.5358965 
 H   -0.3573189    1.7407181    2.3830540 
 O    1.5089128    0.3253213   -1.2294348 
 H    2.3904498    0.3415856   -1.0000620 
 H    0.2970640   -2.0599836    1.7351797 
9
 PE=      -1151.918827 H, t=    880.00 au
TI    0.0417072    0.0598976   -0.1194384 
 O    0.4209878   -1.3962542    1.0613807 
 O   -1.4395717   -0.5823123   -1.1001330 
 H   -1.0902610   -0.6993092   -2.0051986 
 O   -0.6975290    1.5117375    1.5552259 
 H   -0.3650952    1.7698545    2.3948658 
 O    1.5124235    0.3287084   -1.2310284 
 H    2.3860898    0.3335585   -1.0075297 
 H    0.3204271   -2.0581413    1.7628832 
9
 PE=      -1151.921381 H, t=    920.00 au
TI    0.0442902    0.0529005   -0.1231428 
 O    0.4190918   -1.3920669    1.0605905 
 O   -1.4449653   -0.5826680   -1.1067702 
 H   -1.0841128   -0.7183922   -2.0202562 
 O   -0.7017352    1.5246826    1.5732912 
 H   -0.3694788    1.8008813    2.4192792 
 O    1.5128122    0.3323552   -1.2326959 
 H    2.4166268    0.3235525   -1.0058591 
 H    0.3416791   -2.0517473    1.7855101 
9
 PE=      -1151.922079 H, t=    960.00 au
TI    0.0469084    0.0453746   -0.1266214 
 O    0.4170899   -1.3871646    1.0594207 
 O   -1.4491512   -0.5825785   -1.1136080 
 H   -1.0841530   -0.7379825   -2.0273583 
 O   -0.7058001    1.5374053    1.5904091 
 H   -0.3725964    1.8325087    2.4507658 
 O    1.5112918    0.3362429   -1.2341427 
 H    2.4627103    0.3114750   -0.9998261 
 H    0.3612106   -2.0369570    1.7987560 
9
 PE=      -1151.920102 H, t=   1000.00 au
TI    0.0495840    0.0372703   -0.1299069 
 O    0.4149757   -1.3815747    1.0579228 
 O   -1.4521266   -0.5820776   -1.1208209 
 H   -1.0910356   -0.7577870   -2.0249075 
 O   -0.7095658    1.5501778    1.6072881 
 H   -0.3776909    1.8625976    2.4811763 
 O    1.5093428    0.3403529   -1.2350488 
 H    2.5011164    0.2978130   -0.9949575 
 H    0.3791282   -2.0131042    1.8018904 
9
 PE=      -1151.919316 H, t=   1040.00 au
TI    0.0522924    0.0286793   -0.1329703 
 O    0.4127926   -1.3752099    1.0559434 
 O   -1.4539141   -0.5811529   -1.1282075 
 H   -1.1038724   -0.7778783   -2.0151717 
 O   -0.7128526    1.5630104    1.6242142 
 H   -0.3871740    1.8888182    2.5035023 
 O    1.5079138    0.3445674   -1.2352153 
 H    2.5167524    0.2836757   -0.9945929 
 H    0.3949837   -1.9831363    1.7976834 
9
 PE=      -1151.921473 H, t=   1080.00 au
TI    0.0550199    0.0196630   -0.1358083 
 O    0.4105692   -1.3678072    1.0531427 
 O   -1.4546559   -0.5797321   -1.1353761 
 H   -1.1203771   -0.7993115   -2.0039774 
 O   -0.7156148    1.5758836    1.6413017 
 H   -0.4017898    1.9103903    2.5150201 
 O    1.5073572    0.3487876   -1.2345954 
 H    2.5044199    0.2700655   -0.9998237 
 H    0.4085636   -1.9525744    1.7922358 
9
 PE=      -1151.925429 H, t=   1120.00 au
TI    0.0577653    0.0102233   -0.1384545 
 O    0.4083040   -1.3590491    1.0491488 
 O   -1.4545368   -0.5776875   -1.1418908 
 H   -1.1378468   -0.8239188   -1.9984632 
 O   -0.7179489    1.5887598    1.6584986 
 H   -0.4205686    1.9284238    2.5178140 
 O    1.5075068    0.3529715   -1.2332502 
 H    2.4673949    0.2574319   -1.0100005 
 H    0.4201114   -1.9270393    1.7923420 
9
 PE=      -1151.927403 H, t=   1160.00 au
TI    0.0605141    0.0003645   -0.1409582 
 O    0.4059903   -1.3488302    1.0438375 
 O   -1.4536590   -0.5749092   -1.1474642 
 H   -1.1546300   -0.8531600   -2.0031642 
 O   -0.7200338    1.6015026    1.6754948 
 H   -0.4411713    1.9456010    2.5180421 
 O    1.5076230    0.3571416   -1.2313500 
 H    2.4182081    0.2452006   -1.0225720 
 H    0.4300978   -1.9090042    1.8011978 
9
 PE=      -1151.925707 H, t=   1200.00 au
TI    0.0632371   -0.0098918   -0.1433756 
 O    0.4036417   -1.3373808    1.0374951 
 O   -1.4519778   -0.5714012   -1.1521727 
 H   -1.1712100   -0.8867645   -2.0166038 
 O   -0.7220621    1.6139127    1.6918381 
 H   -0.4608374    1.9654478    2.5237918 
 O    1.5063417    0.3614282   -1.2291937 
 H    2.3794353    0.2310682   -1.0328685 
 H    0.4388432   -1.8961611    1.8158304 
9
 PE=      -1151.926849 H, t=   1240.00 au
TI    0.0658877   -0.0204767   -0.1457599 
 O    0.4013107   -1.3251758    1.0306983 
 O   -1.4493587   -0.5673144   -1.1563975 
 H   -1.1895329   -0.9223211   -2.0321280 
 O   -0.7241407    1.6258063    1.7071728 
 H   -0.4778609    1.9905176    2.5406078 
 O    1.5023191    0.3660216   -1.2270825 
 H    2.3736404    0.2116613   -1.0363383 
 H    0.4462996   -1.8835534    1.8293412 
9
 PE=      -1151.930801 H, t=   1280.00 au
TI    0.0683967   -0.0312316   -0.1481515 
 O    0.3990883   -1.3127806    1.0240742 
 O   -1.4457042   -0.5628973   -1.1605574 
 H   -1.2113369   -0.9562504   -2.0420121 
 O   -0.7262184    1.6370970    1.7214574 
 H   -0.4926398    2.0203521    2.5671820 
 O    1.4957053    0.3709115   -1.2250280 
 H    2.4003344    0.1865230   -1.0334720 
 H    0.4521808   -1.8669315    1.8352601 
9
 PE=      -1151.930896 H, t=   1320.00 au
TI    0.0707310   -0.0421332   -0.1506275 
 O    0.3970361   -1.3004667    1.0179727 
 O   -1.4409605   -0.5583145   -1.1649769 
 H   -1.2375451   -0.9860322   -2.0413266 
 O   -0.7281720    1.6480374    1.7352303 
 H   -0.5073861    2.0521216    2.5966176 
 O    1.4880033    0.3758760   -1.2227449 
 H    2.4367048    0.1594282   -1.0292641 
 H    0.4563801   -1.8444169    1.8307357 
9
 PE=      -1151.928363 H, t=   1360.00 au
TI    0.0728525   -0.0531443   -0.1532678 
 O    0.3952069   -1.2883494    1.0125031 
 O   -1.4351424   -0.5536429   -1.1697405 
 H   -1.2679712   -1.0105992   -2.0289355 
 O   -0.7298753    1.6589106    1.7490706 
 H   -0.5242792    2.0823152    2.6211036 
 O    1.4806546    0.3806364   -1.2199897 
 H    2.4609175    0.1350837   -1.0280948 
 H    0.4590375   -1.8170823    1.8171730 
9
 PE=      -1151.927013 H, t=   1400.00 au
TI    0.0746934   -0.0640838   -0.1561255 
 O    0.3936594   -1.2765405    1.0076025 
 O   -1.4283787   -0.5488941   -1.1746307 
 H   -1.3013039   -1.0305496   -2.0077280 
 O   -0.7312355    1.6697937    1.7632071 
 H   -0.5443630    2.1081172    2.6352608 
 O    1.4745586    0.3849487   -1.2166881 
 H    2.4608402    0.1170161   -1.0321386 
 H    0.4606030   -1.7890190    1.8002706 
9
 PE=      -1151.928002 H, t=   1440.00 au
TI    0.0762002   -0.0748295   -0.1592710 
 O    0.3924248   -1.2649964    1.0030304 
 O   -1.4207907   -0.5439257   -1.1792582 
 H   -1.3361545   -1.0487627   -1.9838062 
 O   -0.7322384    1.6807011    1.7776763 
 H   -0.5676745    2.1288669    2.6381563 
 O    1.4699773    0.3887212   -1.2128601 
 H    2.4339651    0.1066053   -1.0417336 
 H    0.4618238   -1.7656118    1.7881184 
9
 PE=      -1151.929421 H, t=   1480.00 au
TI    0.0773269   -0.0852936   -0.1627859 
 O    0.3915372   -1.2537204    0.9986566 
 O   -1.4124538   -0.5385175   -1.1832095 
 H   -1.3717192   -1.0692297   -1.9639340 
 O   -0.7329238    1.6915439    1.7922883 
 H   -0.5935003    2.1462105    2.6332313 
 O    1.4666205    0.3920156   -1.2085955 
 H    2.3862090    0.1029225   -1.0558385 
 H    0.4633477   -1.7507611    1.7868275 
9
 PE=      -1151.927083 H, t=   1520.00 au
TI    0.0780294   -0.0953888   -0.1667525 
 O    0.3910672   -1.2429704    0.9947545 
 O   -1.4033987   -0.5325466   -1.1862849 
 H   -1.4080520   -1.0944388   -1.9515887 
 O   -0.7333523    1.7021085    1.8066371 
 H   -0.6207805    2.1637716    2.6273482 
 O    1.4635923    0.3950899   -1.2040655 
 H    2.3331177    0.1019122   -1.0720503 
 H    0.4652685   -1.7442630    1.7961627 
9
 PE=      -1151.922159 H, t=   1560.00 au
TI    0.0782676   -0.1050303   -0.1712465 
 O    0.3911202   -1.2332289    0.9919701 
 O   -1.3936484   -0.5261347   -1.1886579 
 H   -1.4455682   -1.1230578   -1.9444693 
 O   -0.7335631    1.7121388    1.8202687 
 H   -0.6487752    2.1858419    2.6280861 
 O    1.4594594    0.3984223   -1.1994989 
 H    2.2988103    0.0960473   -1.0870956 
 H    0.4671102   -1.7421800    1.8099205 
9
 PE=      -1151.922273 H, t=   1600.00 au
TI    0.0780086   -0.1140917   -0.1763054 
 O    0.3918037   -1.2250520    0.9910270 
 O   -1.3833294   -0.5196490   -1.1907478 
 H   -1.4839739   -1.1503302   -1.9364406 
 O   -0.7335368    1.7214493    1.8329016 
 H   -0.6775081    2.2146331    2.6391173 
 O    1.4532179    0.4024080   -1.1950626 
 H    2.3011312    0.0789900   -1.0991435 
 H    0.4682455   -1.7398182    1.8205184 
9
 PE=      -1151.924009 H, t=   1640.00 au
TI    0.0772374   -0.1224324   -0.1819148 
 O    0.3931855   -1.2188602    0.9924208 
 O   -1.3726813   -0.5135222   -1.1929722 
 H   -1.5220952   -1.1708853   -1.9216044 
 O   -0.7332090    1.7300737    1.8446348 
 H   -0.7076206    2.2481860    2.6572107 
 O    1.4455722    0.4068583   -1.1907406 
 H    2.3311584    0.0536766   -1.1097385 
 H    0.4683042   -1.7342087    1.8230883 
9
 PE=      -1151.922374 H, t=   1680.00 au
TI    0.0759471   -0.1301160   -0.1881311 
 O    0.3953003   -1.2146753    0.9962864 
 O   -1.3617614   -0.5079434   -1.1956253 
 H   -1.5593607   -1.1817675   -1.8967471 
 O   -0.7325193    1.7384144    1.8560846 
 H   -0.7402518    2.2822100    2.6751027 
 O    1.4380500    0.4112798   -1.1863867 
 H    2.3648737    0.0289512   -1.1214523 
 H    0.4673598   -1.7250428    1.8173665 
9
 PE=      -1151.934229 H, t=   1720.00 au
TI    0.0741478   -0.1371290   -0.1949215 
 O    0.3981231   -1.2123599    1.0024013 
 O   -1.3507224   -0.5029977   -1.1987710 
 H   -1.5952963   -1.1826013   -1.8622033 
 O   -0.7314395    1.7467804    1.8677003 
 H   -0.7756902    2.3118974    2.6857506 
 O    1.4319172    0.4152266   -1.1819920 
 H    2.3833942    0.0124341   -1.1353227 
 H    0.4658950   -1.7148056    1.8074717 
9
 PE=      -1151.931264 H, t=   1760.00 au
TI    0.0719446   -0.1431936   -0.2017114 
 O    0.4015708   -1.2114921    1.0094408 
 O   -1.3396570   -0.4985512   -1.2022026 
 H   -1.6300462   -1.1768119   -1.8220411 
 O   -0.7306680    1.7548084    1.8787242 
 H   -0.8027780    2.3319779    2.6861421 
 O    1.4275447    0.4181954   -1.1775891 
 H    2.3785682    0.0082243   -1.1505509 
 H    0.4640505   -1.7071771    1.8026723 
9
 PE=      -1151.931099 H, t=   1800.00 au
TI    0.0689309   -0.1496361   -0.2098607 
 O    0.4063003   -1.2115221    1.0183864 
 O   -1.3262590   -0.4933860   -1.2064492 
 H   -1.6730495   -1.1683742   -1.7729110 
 O   -0.7300852    1.7642134    1.8915297 
 H   -0.8269322    2.3470022    2.6766049 
 O    1.4240780    0.4208160   -1.1723372 
 H    2.3490645    0.0158303   -1.1697836 
 H    0.4619652   -1.7044777    1.8083714 
